Global frequency set at 1000000000000 ticks per second
gem5 Simulator System.  https://www.gem5.org
gem5 is copyrighted software; use the --copyright option for details.

gem5 version 23.0.0.1
gem5 compiled Aug 17 2023 23:51:48
gem5 started Aug 22 2023 01:58:14
gem5 executing on azacca, pid 214923
command line: /scr/bees/pb-test-board/build/RISCV/gem5.opt --outdir=matched_board_tests_paper/riscv-print-this/0_4_16 simple-config.py --benchmark=riscv-print-this --foldover=0 --pb_row=4 --matrix_size=16

{'core': {'threadPolicy': 'SingleThreaded', 'BP': {'BPChoice': 'Tournament'}, 'FUPool': {'U74IntFU': 3, 'U74IntMulFU': 9, 'U74IntDivFU': 18, 'U74MemReadFU': 2, 'U74MemWriteFU': 2}}, 'cache': {'l2_size': '2MiB', 'l2_assoc': 64, 'l1dcache-response_latency': 1, 'l2cache-data_latency': 5, 'iptw_caches-size': '16KiB', 'dptw_caches-size': '16KiB'}}
info: Using default config
1 sample
2 sample
3 sample
4 sample
5 sample
6 sample
7 sample
8 sample
9 sample
10 sample
11 sample
12 sample
13 sample
14 sample
15 sample
16 sample
17 sample
18 sample
19 sample
20 sample
21 sample
22 sample
23 sample
24 sample
25 sample
26 sample
27 sample
28 sample
29 sample
30 sample
31 sample
32 sample
33 sample
34 sample
35 sample
36 sample
37 sample
38 sample
39 sample
40 sample
41 sample
42 sample
43 sample
44 sample
45 sample
46 sample
47 sample
48 sample
49 sample
50 sample
51 sample
52 sample
53 sample
54 sample
55 sample
56 sample
57 sample
58 sample
59 sample
60 sample
61 sample
62 sample
63 sample
64 sample
65 sample
66 sample
67 sample
68 sample
69 sample
70 sample
71 sample
72 sample
73 sample
74 sample
75 sample
76 sample
77 sample
78 sample
79 sample
80 sample
81 sample
82 sample
83 sample
84 sample
85 sample
86 sample
87 sample
88 sample
89 sample
90 sample
91 sample
92 sample
93 sample
94 sample
95 sample
96 sample
97 sample
98 sample
99 sample
100 sample
