Global frequency set at 1000000000000 ticks per second
gem5 Simulator System.  http://gem5.org
gem5 is copyrighted software; use the --copyright option for details.

gem5 version [DEVELOP-FOR-V21.1]
gem5 compiled Jul  7 2021 10:49:55
gem5 started Jul  7 2021 11:04:45
gem5 executing on shasta, pid 211974
command line: build/NULL/gem5.opt trafgen/simple.py

#####################################
