gem5 Simulator System.  http://gem5.org
gem5 is copyrighted software; use the --copyright option for details.

gem5 compiled Apr  9 2019 20:16:25
gem5 started Apr  9 2019 20:18:31
gem5 executing on amarillo, pid 119202
command line: build/NULL/gem5.debug --debug-flags=Verilator configs/example/dinocpu.py src/verilator/dinocpu-test/add0

Global frequency set at 1000000000000 ticks per second
Beginning simulation!
      0: system.dinocpu: STARTING UP DINOCPU
      0: system.dinocpu: RESETING FOR 1 CYCLES
      0: system.dinocpu: DONE RESETING
      0: system.dinocpu: SCHEDULING FIRST TICK IN 1000
   1000: system.dinocpu: 
TICKING
   1000: system.dinocpu: INSTRUCTION FETCH?
   1000: system.dinocpu.verilatorMem: Sending fetch for addr (pa: 0)
   1000: system.dinocpu.verilatorMem:  -- pkt addr: 0
   1000: system.dinocpu.verilatorMem: Sending data request for addr (pa: 0)
   1000: system.dinocpu.verilatorMem:  -- pkt addr: 0
   1000: system.dinocpu.verilatorMem.instPort: MEMORY RESPONSE RECIEVED
   1000: system.dinocpu.verilatorMem: Got response for addr 0
   1000: system.dinocpu.verilatorMem.dataPort: MEMORY RESPONSE RECIEVED
   1000: system.dinocpu.verilatorMem: Got response for addr 0
   2000: system.dinocpu: 
TICKING
   2000: system.dinocpu: INSTRUCTION FETCH?
   2000: system.dinocpu.verilatorMem: Sending fetch for addr (pa: 0x4)
   2000: system.dinocpu.verilatorMem:  -- pkt addr: 0x4
   2000: system.dinocpu.verilatorMem: Sending data request for addr (pa: 0)
   2000: system.dinocpu.verilatorMem:  -- pkt addr: 0
   2000: system.dinocpu.verilatorMem.instPort: MEMORY RESPONSE RECIEVED
   2000: system.dinocpu.verilatorMem: Got response for addr 0x4
   2000: system.dinocpu.verilatorMem.dataPort: MEMORY RESPONSE RECIEVED
   2000: system.dinocpu.verilatorMem: Got response for addr 0
   3000: system.dinocpu: 
TICKING
   3000: system.dinocpu: INSTRUCTION FETCH?
   3000: system.dinocpu.verilatorMem: Sending fetch for addr (pa: 0x8)
   3000: system.dinocpu.verilatorMem:  -- pkt addr: 0x8
   3000: system.dinocpu.verilatorMem: Sending data request for addr (pa: 0)
   3000: system.dinocpu.verilatorMem:  -- pkt addr: 0
   3000: system.dinocpu.verilatorMem.instPort: MEMORY RESPONSE RECIEVED
   3000: system.dinocpu.verilatorMem: Got response for addr 0x8
   3000: system.dinocpu.verilatorMem.dataPort: MEMORY RESPONSE RECIEVED
   3000: system.dinocpu.verilatorMem: Got response for addr 0
   4000: system.dinocpu: 
TICKING
   4000: system.dinocpu: INSTRUCTION FETCH?
   4000: system.dinocpu.verilatorMem: Sending fetch for addr (pa: 0xc)
   4000: system.dinocpu.verilatorMem:  -- pkt addr: 0xc
   4000: system.dinocpu.verilatorMem: Sending data request for addr (pa: 0)
   4000: system.dinocpu.verilatorMem:  -- pkt addr: 0
   4000: system.dinocpu.verilatorMem.instPort: MEMORY RESPONSE RECIEVED
   4000: system.dinocpu.verilatorMem: Got response for addr 0xc
   4000: system.dinocpu.verilatorMem.dataPort: MEMORY RESPONSE RECIEVED
   4000: system.dinocpu.verilatorMem: Got response for addr 0
   5000: system.dinocpu: 
TICKING
   5000: system.dinocpu: INSTRUCTION FETCH?
   5000: system.dinocpu.verilatorMem: Sending fetch for addr (pa: 0x10)
   5000: system.dinocpu.verilatorMem:  -- pkt addr: 0x10
   5000: system.dinocpu.verilatorMem: Sending data request for addr (pa: 0)
   5000: system.dinocpu.verilatorMem:  -- pkt addr: 0
   5000: system.dinocpu.verilatorMem.instPort: MEMORY RESPONSE RECIEVED
   5000: system.dinocpu.verilatorMem: Got response for addr 0x10
   5000: system.dinocpu.verilatorMem.dataPort: MEMORY RESPONSE RECIEVED
   5000: system.dinocpu.verilatorMem: Got response for addr 0
   6000: system.dinocpu: 
TICKING
   6000: system.dinocpu: INSTRUCTION FETCH?
   6000: system.dinocpu.verilatorMem: Sending fetch for addr (pa: 0x14)
   6000: system.dinocpu.verilatorMem:  -- pkt addr: 0x14
   6000: system.dinocpu.verilatorMem: Sending data request for addr (pa: 0)
   6000: system.dinocpu.verilatorMem:  -- pkt addr: 0
   6000: system.dinocpu.verilatorMem.instPort: MEMORY RESPONSE RECIEVED
   6000: system.dinocpu.verilatorMem: Got response for addr 0x14
   6000: system.dinocpu.verilatorMem.dataPort: MEMORY RESPONSE RECIEVED
   6000: system.dinocpu.verilatorMem: Got response for addr 0
   7000: system.dinocpu: 
TICKING
   7000: system.dinocpu: INSTRUCTION FETCH?
   7000: system.dinocpu.verilatorMem: Sending fetch for addr (pa: 0x18)
   7000: system.dinocpu.verilatorMem:  -- pkt addr: 0x18
   7000: system.dinocpu.verilatorMem: Sending data request for addr (pa: 0)
   7000: system.dinocpu.verilatorMem:  -- pkt addr: 0
   7000: system.dinocpu.verilatorMem.instPort: MEMORY RESPONSE RECIEVED
   7000: system.dinocpu.verilatorMem: Got response for addr 0x18
   7000: system.dinocpu.verilatorMem.dataPort: MEMORY RESPONSE RECIEVED
   7000: system.dinocpu.verilatorMem: Got response for addr 0
   8000: system.dinocpu: 
TICKING
   8000: system.dinocpu: INSTRUCTION FETCH?
   8000: system.dinocpu.verilatorMem: Sending fetch for addr (pa: 0x1c)
   8000: system.dinocpu.verilatorMem:  -- pkt addr: 0x1c
   8000: system.dinocpu.verilatorMem: Sending data request for addr (pa: 0)
   8000: system.dinocpu.verilatorMem:  -- pkt addr: 0
   8000: system.dinocpu.verilatorMem.instPort: MEMORY RESPONSE RECIEVED
   8000: system.dinocpu.verilatorMem: Got response for addr 0x1c
   8000: system.dinocpu.verilatorMem.dataPort: MEMORY RESPONSE RECIEVED
   8000: system.dinocpu.verilatorMem: Got response for addr 0
   9000: system.dinocpu: 
TICKING
   9000: system.dinocpu: INSTRUCTION FETCH?
   9000: system.dinocpu.verilatorMem: Sending fetch for addr (pa: 0x20)
   9000: system.dinocpu.verilatorMem:  -- pkt addr: 0x20
   9000: system.dinocpu.verilatorMem: Sending data request for addr (pa: 0)
   9000: system.dinocpu.verilatorMem:  -- pkt addr: 0
   9000: system.dinocpu.verilatorMem.instPort: MEMORY RESPONSE RECIEVED
   9000: system.dinocpu.verilatorMem: Got response for addr 0x20
   9000: system.dinocpu.verilatorMem.dataPort: MEMORY RESPONSE RECIEVED
   9000: system.dinocpu.verilatorMem: Got response for addr 0
  10000: system.dinocpu: 
TICKING
  10000: system.dinocpu: INSTRUCTION FETCH?
  10000: system.dinocpu.verilatorMem: Sending fetch for addr (pa: 0x24)
  10000: system.dinocpu.verilatorMem:  -- pkt addr: 0x24
  10000: system.dinocpu.verilatorMem: Sending data request for addr (pa: 0)
  10000: system.dinocpu.verilatorMem:  -- pkt addr: 0
  10000: system.dinocpu.verilatorMem.instPort: MEMORY RESPONSE RECIEVED
  10000: system.dinocpu.verilatorMem: Got response for addr 0x24
  10000: system.dinocpu.verilatorMem.dataPort: MEMORY RESPONSE RECIEVED
  10000: system.dinocpu.verilatorMem: Got response for addr 0
  11000: system.dinocpu: 
TICKING
  11000: system.dinocpu: INSTRUCTION FETCH?
  11000: system.dinocpu.verilatorMem: Sending fetch for addr (pa: 0x28)
  11000: system.dinocpu.verilatorMem:  -- pkt addr: 0x28
  11000: system.dinocpu.verilatorMem: Sending data request for addr (pa: 0)
  11000: system.dinocpu.verilatorMem:  -- pkt addr: 0
  11000: system.dinocpu.verilatorMem.instPort: MEMORY RESPONSE RECIEVED
  11000: system.dinocpu.verilatorMem: Got response for addr 0x28
  11000: system.dinocpu.verilatorMem.dataPort: MEMORY RESPONSE RECIEVED
  11000: system.dinocpu.verilatorMem: Got response for addr 0
  12000: system.dinocpu: 
TICKING
  12000: system.dinocpu: INSTRUCTION FETCH?
  12000: system.dinocpu.verilatorMem: Sending fetch for addr (pa: 0x2c)
  12000: system.dinocpu.verilatorMem:  -- pkt addr: 0x2c
  12000: system.dinocpu.verilatorMem: Sending data request for addr (pa: 0)
  12000: system.dinocpu.verilatorMem:  -- pkt addr: 0
  12000: system.dinocpu.verilatorMem.instPort: MEMORY RESPONSE RECIEVED
  12000: system.dinocpu.verilatorMem: Got response for addr 0x2c
  12000: system.dinocpu.verilatorMem.dataPort: MEMORY RESPONSE RECIEVED
  12000: system.dinocpu.verilatorMem: Got response for addr 0
  13000: system.dinocpu: 
TICKING
  13000: system.dinocpu: INSTRUCTION FETCH?
  13000: system.dinocpu.verilatorMem: Sending fetch for addr (pa: 0x30)
  13000: system.dinocpu.verilatorMem:  -- pkt addr: 0x30
  13000: system.dinocpu.verilatorMem: Sending data request for addr (pa: 0)
  13000: system.dinocpu.verilatorMem:  -- pkt addr: 0
  13000: system.dinocpu.verilatorMem.instPort: MEMORY RESPONSE RECIEVED
  13000: system.dinocpu.verilatorMem: Got response for addr 0x30
  13000: system.dinocpu.verilatorMem.dataPort: MEMORY RESPONSE RECIEVED
  13000: system.dinocpu.verilatorMem: Got response for addr 0
  14000: system.dinocpu: 
TICKING
  14000: system.dinocpu: INSTRUCTION FETCH?
  14000: system.dinocpu.verilatorMem: Sending fetch for addr (pa: 0x34)
  14000: system.dinocpu.verilatorMem:  -- pkt addr: 0x34
  14000: system.dinocpu.verilatorMem: Sending data request for addr (pa: 0)
  14000: system.dinocpu.verilatorMem:  -- pkt addr: 0
  14000: system.dinocpu.verilatorMem.instPort: MEMORY RESPONSE RECIEVED
  14000: system.dinocpu.verilatorMem: Got response for addr 0x34
  14000: system.dinocpu.verilatorMem.dataPort: MEMORY RESPONSE RECIEVED
  14000: system.dinocpu.verilatorMem: Got response for addr 0
  15000: system.dinocpu: 
TICKING
  15000: system.dinocpu: INSTRUCTION FETCH?
  15000: system.dinocpu.verilatorMem: Sending fetch for addr (pa: 0x38)
  15000: system.dinocpu.verilatorMem:  -- pkt addr: 0x38
  15000: system.dinocpu.verilatorMem: Sending data request for addr (pa: 0)
  15000: system.dinocpu.verilatorMem:  -- pkt addr: 0
  15000: system.dinocpu.verilatorMem.instPort: MEMORY RESPONSE RECIEVED
  15000: system.dinocpu.verilatorMem: Got response for addr 0x38
  15000: system.dinocpu.verilatorMem.dataPort: MEMORY RESPONSE RECIEVED
  15000: system.dinocpu.verilatorMem: Got response for addr 0
  16000: system.dinocpu: 
TICKING
  16000: system.dinocpu: INSTRUCTION FETCH?
  16000: system.dinocpu.verilatorMem: Sending fetch for addr (pa: 0x3c)
  16000: system.dinocpu.verilatorMem:  -- pkt addr: 0x3c
  16000: system.dinocpu.verilatorMem: Sending data request for addr (pa: 0)
  16000: system.dinocpu.verilatorMem:  -- pkt addr: 0
  16000: system.dinocpu.verilatorMem.instPort: MEMORY RESPONSE RECIEVED
  16000: system.dinocpu.verilatorMem: Got response for addr 0x3c
  16000: system.dinocpu.verilatorMem.dataPort: MEMORY RESPONSE RECIEVED
  16000: system.dinocpu.verilatorMem: Got response for addr 0
  17000: system.dinocpu: 
TICKING
  17000: system.dinocpu: INSTRUCTION FETCH?
  17000: system.dinocpu.verilatorMem: Sending fetch for addr (pa: 0x40)
  17000: system.dinocpu.verilatorMem:  -- pkt addr: 0x40
  17000: system.dinocpu.verilatorMem: Sending data request for addr (pa: 0)
  17000: system.dinocpu.verilatorMem:  -- pkt addr: 0
  17000: system.dinocpu.verilatorMem.instPort: MEMORY RESPONSE RECIEVED
  17000: system.dinocpu.verilatorMem: Got response for addr 0x40
  17000: system.dinocpu.verilatorMem.dataPort: MEMORY RESPONSE RECIEVED
  17000: system.dinocpu.verilatorMem: Got response for addr 0
  18000: system.dinocpu: 
TICKING
  18000: system.dinocpu: INSTRUCTION FETCH?
  18000: system.dinocpu.verilatorMem: Sending fetch for addr (pa: 0x44)
  18000: system.dinocpu.verilatorMem:  -- pkt addr: 0x44
  18000: system.dinocpu.verilatorMem: Sending data request for addr (pa: 0)
  18000: system.dinocpu.verilatorMem:  -- pkt addr: 0
  18000: system.dinocpu.verilatorMem.instPort: MEMORY RESPONSE RECIEVED
  18000: system.dinocpu.verilatorMem: Got response for addr 0x44
  18000: system.dinocpu.verilatorMem.dataPort: MEMORY RESPONSE RECIEVED
  18000: system.dinocpu.verilatorMem: Got response for addr 0
  19000: system.dinocpu: 
TICKING
  19000: system.dinocpu: INSTRUCTION FETCH?
  19000: system.dinocpu.verilatorMem: Sending fetch for addr (pa: 0x48)
  19000: system.dinocpu.verilatorMem:  -- pkt addr: 0x48
  19000: system.dinocpu.verilatorMem: Sending data request for addr (pa: 0)
  19000: system.dinocpu.verilatorMem:  -- pkt addr: 0
  19000: system.dinocpu.verilatorMem.instPort: MEMORY RESPONSE RECIEVED
  19000: system.dinocpu.verilatorMem: Got response for addr 0x48
  19000: system.dinocpu.verilatorMem.dataPort: MEMORY RESPONSE RECIEVED
  19000: system.dinocpu.verilatorMem: Got response for addr 0
  20000: system.dinocpu: 
TICKING
  20000: system.dinocpu: INSTRUCTION FETCH?
  20000: system.dinocpu.verilatorMem: Sending fetch for addr (pa: 0x4c)
  20000: system.dinocpu.verilatorMem:  -- pkt addr: 0x4c
  20000: system.dinocpu.verilatorMem: Sending data request for addr (pa: 0)
  20000: system.dinocpu.verilatorMem:  -- pkt addr: 0
  20000: system.dinocpu.verilatorMem.instPort: MEMORY RESPONSE RECIEVED
  20000: system.dinocpu.verilatorMem: Got response for addr 0x4c
  20000: system.dinocpu.verilatorMem.dataPort: MEMORY RESPONSE RECIEVED
  20000: system.dinocpu.verilatorMem: Got response for addr 0
  21000: system.dinocpu: 
TICKING
  21000: system.dinocpu: INSTRUCTION FETCH?
  21000: system.dinocpu.verilatorMem: Sending fetch for addr (pa: 0x50)
  21000: system.dinocpu.verilatorMem:  -- pkt addr: 0x50
  21000: system.dinocpu.verilatorMem: Sending data request for addr (pa: 0)
  21000: system.dinocpu.verilatorMem:  -- pkt addr: 0
  21000: system.dinocpu.verilatorMem.instPort: MEMORY RESPONSE RECIEVED
  21000: system.dinocpu.verilatorMem: Got response for addr 0x50
  21000: system.dinocpu.verilatorMem.dataPort: MEMORY RESPONSE RECIEVED
  21000: system.dinocpu.verilatorMem: Got response for addr 0
  22000: system.dinocpu: 
TICKING
  22000: system.dinocpu: INSTRUCTION FETCH?
  22000: system.dinocpu.verilatorMem: Sending fetch for addr (pa: 0x54)
  22000: system.dinocpu.verilatorMem:  -- pkt addr: 0x54
  22000: system.dinocpu.verilatorMem: Sending data request for addr (pa: 0)
  22000: system.dinocpu.verilatorMem:  -- pkt addr: 0
  22000: system.dinocpu.verilatorMem.instPort: MEMORY RESPONSE RECIEVED
  22000: system.dinocpu.verilatorMem: Got response for addr 0x54
  22000: system.dinocpu.verilatorMem.dataPort: MEMORY RESPONSE RECIEVED
  22000: system.dinocpu.verilatorMem: Got response for addr 0
  23000: system.dinocpu: 
TICKING
  23000: system.dinocpu: INSTRUCTION FETCH?
  23000: system.dinocpu.verilatorMem: Sending fetch for addr (pa: 0x58)
  23000: system.dinocpu.verilatorMem:  -- pkt addr: 0x58
  23000: system.dinocpu.verilatorMem: Sending data request for addr (pa: 0)
  23000: system.dinocpu.verilatorMem:  -- pkt addr: 0
  23000: system.dinocpu.verilatorMem.instPort: MEMORY RESPONSE RECIEVED
  23000: system.dinocpu.verilatorMem: Got response for addr 0x58
  23000: system.dinocpu.verilatorMem.dataPort: MEMORY RESPONSE RECIEVED
  23000: system.dinocpu.verilatorMem: Got response for addr 0
  24000: system.dinocpu: 
TICKING
  24000: system.dinocpu: INSTRUCTION FETCH?
  24000: system.dinocpu.verilatorMem: Sending fetch for addr (pa: 0x5c)
  24000: system.dinocpu.verilatorMem:  -- pkt addr: 0x5c
  24000: system.dinocpu.verilatorMem: Sending data request for addr (pa: 0)
  24000: system.dinocpu.verilatorMem:  -- pkt addr: 0
  24000: system.dinocpu.verilatorMem.instPort: MEMORY RESPONSE RECIEVED
  24000: system.dinocpu.verilatorMem: Got response for addr 0x5c
  24000: system.dinocpu.verilatorMem.dataPort: MEMORY RESPONSE RECIEVED
  24000: system.dinocpu.verilatorMem: Got response for addr 0
  25000: system.dinocpu: 
TICKING
  25000: system.dinocpu: INSTRUCTION FETCH?
  25000: system.dinocpu.verilatorMem: Sending fetch for addr (pa: 0x60)
  25000: system.dinocpu.verilatorMem:  -- pkt addr: 0x60
  25000: system.dinocpu.verilatorMem: Sending data request for addr (pa: 0)
  25000: system.dinocpu.verilatorMem:  -- pkt addr: 0
  25000: system.dinocpu.verilatorMem.instPort: MEMORY RESPONSE RECIEVED
  25000: system.dinocpu.verilatorMem: Got response for addr 0x60
  25000: system.dinocpu.verilatorMem.dataPort: MEMORY RESPONSE RECIEVED
  25000: system.dinocpu.verilatorMem: Got response for addr 0
  26000: system.dinocpu: 
TICKING
  26000: system.dinocpu: INSTRUCTION FETCH?
  26000: system.dinocpu.verilatorMem: Sending fetch for addr (pa: 0x64)
  26000: system.dinocpu.verilatorMem:  -- pkt addr: 0x64
  26000: system.dinocpu.verilatorMem: Sending data request for addr (pa: 0)
  26000: system.dinocpu.verilatorMem:  -- pkt addr: 0
  26000: system.dinocpu.verilatorMem.instPort: MEMORY RESPONSE RECIEVED
  26000: system.dinocpu.verilatorMem: Got response for addr 0x64
  26000: system.dinocpu.verilatorMem.dataPort: MEMORY RESPONSE RECIEVED
  26000: system.dinocpu.verilatorMem: Got response for addr 0
  27000: system.dinocpu: 
TICKING
  27000: system.dinocpu: INSTRUCTION FETCH?
  27000: system.dinocpu.verilatorMem: Sending fetch for addr (pa: 0x68)
  27000: system.dinocpu.verilatorMem:  -- pkt addr: 0x68
  27000: system.dinocpu.verilatorMem: Sending data request for addr (pa: 0)
  27000: system.dinocpu.verilatorMem:  -- pkt addr: 0
  27000: system.dinocpu.verilatorMem.instPort: MEMORY RESPONSE RECIEVED
  27000: system.dinocpu.verilatorMem: Got response for addr 0x68
  27000: system.dinocpu.verilatorMem.dataPort: MEMORY RESPONSE RECIEVED
  27000: system.dinocpu.verilatorMem: Got response for addr 0
  28000: system.dinocpu: 
TICKING
  28000: system.dinocpu: INSTRUCTION FETCH?
  28000: system.dinocpu.verilatorMem: Sending fetch for addr (pa: 0x6c)
  28000: system.dinocpu.verilatorMem:  -- pkt addr: 0x6c
  28000: system.dinocpu.verilatorMem: Sending data request for addr (pa: 0)
  28000: system.dinocpu.verilatorMem:  -- pkt addr: 0
  28000: system.dinocpu.verilatorMem.instPort: MEMORY RESPONSE RECIEVED
  28000: system.dinocpu.verilatorMem: Got response for addr 0x6c
  28000: system.dinocpu.verilatorMem.dataPort: MEMORY RESPONSE RECIEVED
  28000: system.dinocpu.verilatorMem: Got response for addr 0
  29000: system.dinocpu: 
TICKING
  29000: system.dinocpu: INSTRUCTION FETCH?
  29000: system.dinocpu.verilatorMem: Sending fetch for addr (pa: 0x70)
  29000: system.dinocpu.verilatorMem:  -- pkt addr: 0x70
  29000: system.dinocpu.verilatorMem: Sending data request for addr (pa: 0)
  29000: system.dinocpu.verilatorMem:  -- pkt addr: 0
  29000: system.dinocpu.verilatorMem.instPort: MEMORY RESPONSE RECIEVED
  29000: system.dinocpu.verilatorMem: Got response for addr 0x70
  29000: system.dinocpu.verilatorMem.dataPort: MEMORY RESPONSE RECIEVED
  29000: system.dinocpu.verilatorMem: Got response for addr 0
  30000: system.dinocpu: 
TICKING
  30000: system.dinocpu: INSTRUCTION FETCH?
  30000: system.dinocpu.verilatorMem: Sending fetch for addr (pa: 0x74)
  30000: system.dinocpu.verilatorMem:  -- pkt addr: 0x74
  30000: system.dinocpu.verilatorMem: Sending data request for addr (pa: 0)
  30000: system.dinocpu.verilatorMem:  -- pkt addr: 0
  30000: system.dinocpu.verilatorMem.instPort: MEMORY RESPONSE RECIEVED
  30000: system.dinocpu.verilatorMem: Got response for addr 0x74
  30000: system.dinocpu.verilatorMem.dataPort: MEMORY RESPONSE RECIEVED
  30000: system.dinocpu.verilatorMem: Got response for addr 0
  31000: system.dinocpu: 
TICKING
  31000: system.dinocpu: INSTRUCTION FETCH?
  31000: system.dinocpu.verilatorMem: Sending fetch for addr (pa: 0x78)
  31000: system.dinocpu.verilatorMem:  -- pkt addr: 0x78
  31000: system.dinocpu.verilatorMem: Sending data request for addr (pa: 0)
  31000: system.dinocpu.verilatorMem:  -- pkt addr: 0
  31000: system.dinocpu.verilatorMem.instPort: MEMORY RESPONSE RECIEVED
  31000: system.dinocpu.verilatorMem: Got response for addr 0x78
  31000: system.dinocpu.verilatorMem.dataPort: MEMORY RESPONSE RECIEVED
  31000: system.dinocpu.verilatorMem: Got response for addr 0
  32000: system.dinocpu: 
TICKING
  32000: system.dinocpu: INSTRUCTION FETCH?
  32000: system.dinocpu.verilatorMem: Sending fetch for addr (pa: 0x7c)
  32000: system.dinocpu.verilatorMem:  -- pkt addr: 0x7c
  32000: system.dinocpu.verilatorMem: Sending data request for addr (pa: 0)
  32000: system.dinocpu.verilatorMem:  -- pkt addr: 0
  32000: system.dinocpu.verilatorMem.instPort: MEMORY RESPONSE RECIEVED
  32000: system.dinocpu.verilatorMem: Got response for addr 0x7c
  32000: system.dinocpu.verilatorMem.dataPort: MEMORY RESPONSE RECIEVED
  32000: system.dinocpu.verilatorMem: Got response for addr 0
  33000: system.dinocpu: 
TICKING
  33000: system.dinocpu: INSTRUCTION FETCH?
  33000: system.dinocpu.verilatorMem: Sending fetch for addr (pa: 0x80)
  33000: system.dinocpu.verilatorMem:  -- pkt addr: 0x80
  33000: system.dinocpu.verilatorMem: Sending data request for addr (pa: 0)
  33000: system.dinocpu.verilatorMem:  -- pkt addr: 0
  33000: system.dinocpu.verilatorMem.instPort: MEMORY RESPONSE RECIEVED
  33000: system.dinocpu.verilatorMem: Got response for addr 0x80
  33000: system.dinocpu.verilatorMem.dataPort: MEMORY RESPONSE RECIEVED
  33000: system.dinocpu.verilatorMem: Got response for addr 0
  34000: system.dinocpu: 
TICKING
  34000: system.dinocpu: INSTRUCTION FETCH?
  34000: system.dinocpu.verilatorMem: Sending fetch for addr (pa: 0x84)
  34000: system.dinocpu.verilatorMem:  -- pkt addr: 0x84
  34000: system.dinocpu.verilatorMem: Sending data request for addr (pa: 0)
  34000: system.dinocpu.verilatorMem:  -- pkt addr: 0
  34000: system.dinocpu.verilatorMem.instPort: MEMORY RESPONSE RECIEVED
  34000: system.dinocpu.verilatorMem: Got response for addr 0x84
  34000: system.dinocpu.verilatorMem.dataPort: MEMORY RESPONSE RECIEVED
  34000: system.dinocpu.verilatorMem: Got response for addr 0
  35000: system.dinocpu: 
TICKING
  35000: system.dinocpu: INSTRUCTION FETCH?
  35000: system.dinocpu.verilatorMem: Sending fetch for addr (pa: 0x88)
  35000: system.dinocpu.verilatorMem:  -- pkt addr: 0x88
  35000: system.dinocpu.verilatorMem: Sending data request for addr (pa: 0)
  35000: system.dinocpu.verilatorMem:  -- pkt addr: 0
  35000: system.dinocpu.verilatorMem.instPort: MEMORY RESPONSE RECIEVED
  35000: system.dinocpu.verilatorMem: Got response for addr 0x88
  35000: system.dinocpu.verilatorMem.dataPort: MEMORY RESPONSE RECIEVED
  35000: system.dinocpu.verilatorMem: Got response for addr 0
  36000: system.dinocpu: 
TICKING
  36000: system.dinocpu: INSTRUCTION FETCH?
  36000: system.dinocpu.verilatorMem: Sending fetch for addr (pa: 0x8c)
  36000: system.dinocpu.verilatorMem:  -- pkt addr: 0x8c
  36000: system.dinocpu.verilatorMem: Sending data request for addr (pa: 0)
  36000: system.dinocpu.verilatorMem:  -- pkt addr: 0
  36000: system.dinocpu.verilatorMem.instPort: MEMORY RESPONSE RECIEVED
  36000: system.dinocpu.verilatorMem: Got response for addr 0x8c
  36000: system.dinocpu.verilatorMem.dataPort: MEMORY RESPONSE RECIEVED
  36000: system.dinocpu.verilatorMem: Got response for addr 0
  37000: system.dinocpu: 
TICKING
  37000: system.dinocpu: INSTRUCTION FETCH?
  37000: system.dinocpu.verilatorMem: Sending fetch for addr (pa: 0x90)
  37000: system.dinocpu.verilatorMem:  -- pkt addr: 0x90
  37000: system.dinocpu.verilatorMem: Sending data request for addr (pa: 0)
  37000: system.dinocpu.verilatorMem:  -- pkt addr: 0
  37000: system.dinocpu.verilatorMem.instPort: MEMORY RESPONSE RECIEVED
  37000: system.dinocpu.verilatorMem: Got response for addr 0x90
  37000: system.dinocpu.verilatorMem.dataPort: MEMORY RESPONSE RECIEVED
  37000: system.dinocpu.verilatorMem: Got response for addr 0
  38000: system.dinocpu: 
TICKING
  38000: system.dinocpu: INSTRUCTION FETCH?
  38000: system.dinocpu.verilatorMem: Sending fetch for addr (pa: 0x94)
  38000: system.dinocpu.verilatorMem:  -- pkt addr: 0x94
  38000: system.dinocpu.verilatorMem: Sending data request for addr (pa: 0)
  38000: system.dinocpu.verilatorMem:  -- pkt addr: 0
  38000: system.dinocpu.verilatorMem.instPort: MEMORY RESPONSE RECIEVED
  38000: system.dinocpu.verilatorMem: Got response for addr 0x94
  38000: system.dinocpu.verilatorMem.dataPort: MEMORY RESPONSE RECIEVED
  38000: system.dinocpu.verilatorMem: Got response for addr 0
  39000: system.dinocpu: 
TICKING
  39000: system.dinocpu: INSTRUCTION FETCH?
  39000: system.dinocpu.verilatorMem: Sending fetch for addr (pa: 0x98)
  39000: system.dinocpu.verilatorMem:  -- pkt addr: 0x98
  39000: system.dinocpu.verilatorMem: Sending data request for addr (pa: 0)
  39000: system.dinocpu.verilatorMem:  -- pkt addr: 0
  39000: system.dinocpu.verilatorMem.instPort: MEMORY RESPONSE RECIEVED
  39000: system.dinocpu.verilatorMem: Got response for addr 0x98
  39000: system.dinocpu.verilatorMem.dataPort: MEMORY RESPONSE RECIEVED
  39000: system.dinocpu.verilatorMem: Got response for addr 0
  40000: system.dinocpu: 
TICKING
  40000: system.dinocpu: INSTRUCTION FETCH?
  40000: system.dinocpu.verilatorMem: Sending fetch for addr (pa: 0x9c)
  40000: system.dinocpu.verilatorMem:  -- pkt addr: 0x9c
  40000: system.dinocpu.verilatorMem: Sending data request for addr (pa: 0)
  40000: system.dinocpu.verilatorMem:  -- pkt addr: 0
  40000: system.dinocpu.verilatorMem.instPort: MEMORY RESPONSE RECIEVED
  40000: system.dinocpu.verilatorMem: Got response for addr 0x9c
  40000: system.dinocpu.verilatorMem.dataPort: MEMORY RESPONSE RECIEVED
  40000: system.dinocpu.verilatorMem: Got response for addr 0
  41000: system.dinocpu: 
TICKING
  41000: system.dinocpu: INSTRUCTION FETCH?
  41000: system.dinocpu.verilatorMem: Sending fetch for addr (pa: 0xa0)
  41000: system.dinocpu.verilatorMem:  -- pkt addr: 0xa0
  41000: system.dinocpu.verilatorMem: Sending data request for addr (pa: 0)
  41000: system.dinocpu.verilatorMem:  -- pkt addr: 0
  41000: system.dinocpu.verilatorMem.instPort: MEMORY RESPONSE RECIEVED
  41000: system.dinocpu.verilatorMem: Got response for addr 0xa0
  41000: system.dinocpu.verilatorMem.dataPort: MEMORY RESPONSE RECIEVED
  41000: system.dinocpu.verilatorMem: Got response for addr 0
  42000: system.dinocpu: 
TICKING
  42000: system.dinocpu: INSTRUCTION FETCH?
  42000: system.dinocpu.verilatorMem: Sending fetch for addr (pa: 0xa4)
  42000: system.dinocpu.verilatorMem:  -- pkt addr: 0xa4
  42000: system.dinocpu.verilatorMem: Sending data request for addr (pa: 0)
  42000: system.dinocpu.verilatorMem:  -- pkt addr: 0
  42000: system.dinocpu.verilatorMem.instPort: MEMORY RESPONSE RECIEVED
  42000: system.dinocpu.verilatorMem: Got response for addr 0xa4
  42000: system.dinocpu.verilatorMem.dataPort: MEMORY RESPONSE RECIEVED
  42000: system.dinocpu.verilatorMem: Got response for addr 0
  43000: system.dinocpu: 
TICKING
  43000: system.dinocpu: INSTRUCTION FETCH?
  43000: system.dinocpu.verilatorMem: Sending fetch for addr (pa: 0xa8)
  43000: system.dinocpu.verilatorMem:  -- pkt addr: 0xa8
  43000: system.dinocpu.verilatorMem: Sending data request for addr (pa: 0)
  43000: system.dinocpu.verilatorMem:  -- pkt addr: 0
  43000: system.dinocpu.verilatorMem.instPort: MEMORY RESPONSE RECIEVED
  43000: system.dinocpu.verilatorMem: Got response for addr 0xa8
  43000: system.dinocpu.verilatorMem.dataPort: MEMORY RESPONSE RECIEVED
  43000: system.dinocpu.verilatorMem: Got response for addr 0
  44000: system.dinocpu: 
TICKING
  44000: system.dinocpu: INSTRUCTION FETCH?
  44000: system.dinocpu.verilatorMem: Sending fetch for addr (pa: 0xac)
  44000: system.dinocpu.verilatorMem:  -- pkt addr: 0xac
  44000: system.dinocpu.verilatorMem: Sending data request for addr (pa: 0)
  44000: system.dinocpu.verilatorMem:  -- pkt addr: 0
  44000: system.dinocpu.verilatorMem.instPort: MEMORY RESPONSE RECIEVED
  44000: system.dinocpu.verilatorMem: Got response for addr 0xac
  44000: system.dinocpu.verilatorMem.dataPort: MEMORY RESPONSE RECIEVED
  44000: system.dinocpu.verilatorMem: Got response for addr 0
  45000: system.dinocpu: 
TICKING
  45000: system.dinocpu: INSTRUCTION FETCH?
  45000: system.dinocpu.verilatorMem: Sending fetch for addr (pa: 0xb0)
  45000: system.dinocpu.verilatorMem:  -- pkt addr: 0xb0
  45000: system.dinocpu.verilatorMem: Sending data request for addr (pa: 0)
  45000: system.dinocpu.verilatorMem:  -- pkt addr: 0
  45000: system.dinocpu.verilatorMem.instPort: MEMORY RESPONSE RECIEVED
  45000: system.dinocpu.verilatorMem: Got response for addr 0xb0
  45000: system.dinocpu.verilatorMem.dataPort: MEMORY RESPONSE RECIEVED
  45000: system.dinocpu.verilatorMem: Got response for addr 0
  46000: system.dinocpu: 
TICKING
  46000: system.dinocpu: INSTRUCTION FETCH?
  46000: system.dinocpu.verilatorMem: Sending fetch for addr (pa: 0xb4)
  46000: system.dinocpu.verilatorMem:  -- pkt addr: 0xb4
  46000: system.dinocpu.verilatorMem: Sending data request for addr (pa: 0)
  46000: system.dinocpu.verilatorMem:  -- pkt addr: 0
  46000: system.dinocpu.verilatorMem.instPort: MEMORY RESPONSE RECIEVED
  46000: system.dinocpu.verilatorMem: Got response for addr 0xb4
  46000: system.dinocpu.verilatorMem.dataPort: MEMORY RESPONSE RECIEVED
  46000: system.dinocpu.verilatorMem: Got response for addr 0
  47000: system.dinocpu: 
TICKING
  47000: system.dinocpu: INSTRUCTION FETCH?
  47000: system.dinocpu.verilatorMem: Sending fetch for addr (pa: 0xb8)
  47000: system.dinocpu.verilatorMem:  -- pkt addr: 0xb8
  47000: system.dinocpu.verilatorMem: Sending data request for addr (pa: 0)
  47000: system.dinocpu.verilatorMem:  -- pkt addr: 0
  47000: system.dinocpu.verilatorMem.instPort: MEMORY RESPONSE RECIEVED
  47000: system.dinocpu.verilatorMem: Got response for addr 0xb8
  47000: system.dinocpu.verilatorMem.dataPort: MEMORY RESPONSE RECIEVED
  47000: system.dinocpu.verilatorMem: Got response for addr 0
  48000: system.dinocpu: 
TICKING
  48000: system.dinocpu: INSTRUCTION FETCH?
  48000: system.dinocpu.verilatorMem: Sending fetch for addr (pa: 0xbc)
  48000: system.dinocpu.verilatorMem:  -- pkt addr: 0xbc
  48000: system.dinocpu.verilatorMem: Sending data request for addr (pa: 0)
  48000: system.dinocpu.verilatorMem:  -- pkt addr: 0
  48000: system.dinocpu.verilatorMem.instPort: MEMORY RESPONSE RECIEVED
  48000: system.dinocpu.verilatorMem: Got response for addr 0xbc
  48000: system.dinocpu.verilatorMem.dataPort: MEMORY RESPONSE RECIEVED
  48000: system.dinocpu.verilatorMem: Got response for addr 0
  49000: system.dinocpu: 
TICKING
  49000: system.dinocpu: INSTRUCTION FETCH?
  49000: system.dinocpu.verilatorMem: Sending fetch for addr (pa: 0xc0)
  49000: system.dinocpu.verilatorMem:  -- pkt addr: 0xc0
  49000: system.dinocpu.verilatorMem: Sending data request for addr (pa: 0)
  49000: system.dinocpu.verilatorMem:  -- pkt addr: 0
  49000: system.dinocpu.verilatorMem.instPort: MEMORY RESPONSE RECIEVED
  49000: system.dinocpu.verilatorMem: Got response for addr 0xc0
  49000: system.dinocpu.verilatorMem.dataPort: MEMORY RESPONSE RECIEVED
  49000: system.dinocpu.verilatorMem: Got response for addr 0
  50000: system.dinocpu: 
TICKING
  50000: system.dinocpu: INSTRUCTION FETCH?
  50000: system.dinocpu.verilatorMem: Sending fetch for addr (pa: 0xc4)
  50000: system.dinocpu.verilatorMem:  -- pkt addr: 0xc4
  50000: system.dinocpu.verilatorMem: Sending data request for addr (pa: 0)
  50000: system.dinocpu.verilatorMem:  -- pkt addr: 0
  50000: system.dinocpu.verilatorMem.instPort: MEMORY RESPONSE RECIEVED
  50000: system.dinocpu.verilatorMem: Got response for addr 0xc4
  50000: system.dinocpu.verilatorMem.dataPort: MEMORY RESPONSE RECIEVED
  50000: system.dinocpu.verilatorMem: Got response for addr 0
  51000: system.dinocpu: 
TICKING
  51000: system.dinocpu: INSTRUCTION FETCH?
  51000: system.dinocpu.verilatorMem: Sending fetch for addr (pa: 0xc8)
  51000: system.dinocpu.verilatorMem:  -- pkt addr: 0xc8
  51000: system.dinocpu.verilatorMem: Sending data request for addr (pa: 0)
  51000: system.dinocpu.verilatorMem:  -- pkt addr: 0
  51000: system.dinocpu.verilatorMem.instPort: MEMORY RESPONSE RECIEVED
  51000: system.dinocpu.verilatorMem: Got response for addr 0xc8
  51000: system.dinocpu.verilatorMem.dataPort: MEMORY RESPONSE RECIEVED
  51000: system.dinocpu.verilatorMem: Got response for addr 0
  52000: system.dinocpu: 
TICKING
  52000: system.dinocpu: INSTRUCTION FETCH?
  52000: system.dinocpu.verilatorMem: Sending fetch for addr (pa: 0xcc)
  52000: system.dinocpu.verilatorMem:  -- pkt addr: 0xcc
  52000: system.dinocpu.verilatorMem: Sending data request for addr (pa: 0)
  52000: system.dinocpu.verilatorMem:  -- pkt addr: 0
  52000: system.dinocpu.verilatorMem.instPort: MEMORY RESPONSE RECIEVED
  52000: system.dinocpu.verilatorMem: Got response for addr 0xcc
  52000: system.dinocpu.verilatorMem.dataPort: MEMORY RESPONSE RECIEVED
  52000: system.dinocpu.verilatorMem: Got response for addr 0
  53000: system.dinocpu: 
TICKING
  53000: system.dinocpu: INSTRUCTION FETCH?
  53000: system.dinocpu.verilatorMem: Sending fetch for addr (pa: 0xd0)
  53000: system.dinocpu.verilatorMem:  -- pkt addr: 0xd0
  53000: system.dinocpu.verilatorMem: Sending data request for addr (pa: 0)
  53000: system.dinocpu.verilatorMem:  -- pkt addr: 0
  53000: system.dinocpu.verilatorMem.instPort: MEMORY RESPONSE RECIEVED
  53000: system.dinocpu.verilatorMem: Got response for addr 0xd0
  53000: system.dinocpu.verilatorMem.dataPort: MEMORY RESPONSE RECIEVED
  53000: system.dinocpu.verilatorMem: Got response for addr 0
  54000: system.dinocpu: 
TICKING
  54000: system.dinocpu: INSTRUCTION FETCH?
  54000: system.dinocpu.verilatorMem: Sending fetch for addr (pa: 0xd4)
  54000: system.dinocpu.verilatorMem:  -- pkt addr: 0xd4
  54000: system.dinocpu.verilatorMem: Sending data request for addr (pa: 0)
  54000: system.dinocpu.verilatorMem:  -- pkt addr: 0
  54000: system.dinocpu.verilatorMem.instPort: MEMORY RESPONSE RECIEVED
  54000: system.dinocpu.verilatorMem: Got response for addr 0xd4
  54000: system.dinocpu.verilatorMem.dataPort: MEMORY RESPONSE RECIEVED
  54000: system.dinocpu.verilatorMem: Got response for addr 0
  55000: system.dinocpu: 
TICKING
  55000: system.dinocpu: INSTRUCTION FETCH?
  55000: system.dinocpu.verilatorMem: Sending fetch for addr (pa: 0xd8)
  55000: system.dinocpu.verilatorMem:  -- pkt addr: 0xd8
  55000: system.dinocpu.verilatorMem: Sending data request for addr (pa: 0)
  55000: system.dinocpu.verilatorMem:  -- pkt addr: 0
  55000: system.dinocpu.verilatorMem.instPort: MEMORY RESPONSE RECIEVED
  55000: system.dinocpu.verilatorMem: Got response for addr 0xd8
  55000: system.dinocpu.verilatorMem.dataPort: MEMORY RESPONSE RECIEVED
  55000: system.dinocpu.verilatorMem: Got response for addr 0
  56000: system.dinocpu: 
TICKING
  56000: system.dinocpu: INSTRUCTION FETCH?
  56000: system.dinocpu.verilatorMem: Sending fetch for addr (pa: 0xdc)
  56000: system.dinocpu.verilatorMem:  -- pkt addr: 0xdc
  56000: system.dinocpu.verilatorMem: Sending data request for addr (pa: 0)
  56000: system.dinocpu.verilatorMem:  -- pkt addr: 0
  56000: system.dinocpu.verilatorMem.instPort: MEMORY RESPONSE RECIEVED
  56000: system.dinocpu.verilatorMem: Got response for addr 0xdc
  56000: system.dinocpu.verilatorMem.dataPort: MEMORY RESPONSE RECIEVED
  56000: system.dinocpu.verilatorMem: Got response for addr 0
  57000: system.dinocpu: 
TICKING
  57000: system.dinocpu: INSTRUCTION FETCH?
  57000: system.dinocpu.verilatorMem: Sending fetch for addr (pa: 0xe0)
  57000: system.dinocpu.verilatorMem:  -- pkt addr: 0xe0
  57000: system.dinocpu.verilatorMem: Sending data request for addr (pa: 0)
  57000: system.dinocpu.verilatorMem:  -- pkt addr: 0
  57000: system.dinocpu.verilatorMem.instPort: MEMORY RESPONSE RECIEVED
  57000: system.dinocpu.verilatorMem: Got response for addr 0xe0
  57000: system.dinocpu.verilatorMem.dataPort: MEMORY RESPONSE RECIEVED
  57000: system.dinocpu.verilatorMem: Got response for addr 0
  58000: system.dinocpu: 
TICKING
  58000: system.dinocpu: INSTRUCTION FETCH?
  58000: system.dinocpu.verilatorMem: Sending fetch for addr (pa: 0xe4)
  58000: system.dinocpu.verilatorMem:  -- pkt addr: 0xe4
  58000: system.dinocpu.verilatorMem: Sending data request for addr (pa: 0)
  58000: system.dinocpu.verilatorMem:  -- pkt addr: 0
  58000: system.dinocpu.verilatorMem.instPort: MEMORY RESPONSE RECIEVED
  58000: system.dinocpu.verilatorMem: Got response for addr 0xe4
  58000: system.dinocpu.verilatorMem.dataPort: MEMORY RESPONSE RECIEVED
  58000: system.dinocpu.verilatorMem: Got response for addr 0
  59000: system.dinocpu: 
TICKING
  59000: system.dinocpu: INSTRUCTION FETCH?
  59000: system.dinocpu.verilatorMem: Sending fetch for addr (pa: 0xe8)
  59000: system.dinocpu.verilatorMem:  -- pkt addr: 0xe8
  59000: system.dinocpu.verilatorMem: Sending data request for addr (pa: 0)
  59000: system.dinocpu.verilatorMem:  -- pkt addr: 0
  59000: system.dinocpu.verilatorMem.instPort: MEMORY RESPONSE RECIEVED
  59000: system.dinocpu.verilatorMem: Got response for addr 0xe8
  59000: system.dinocpu.verilatorMem.dataPort: MEMORY RESPONSE RECIEVED
  59000: system.dinocpu.verilatorMem: Got response for addr 0
  60000: system.dinocpu: 
TICKING
  60000: system.dinocpu: INSTRUCTION FETCH?
  60000: system.dinocpu.verilatorMem: Sending fetch for addr (pa: 0xec)
  60000: system.dinocpu.verilatorMem:  -- pkt addr: 0xec
  60000: system.dinocpu.verilatorMem: Sending data request for addr (pa: 0)
  60000: system.dinocpu.verilatorMem:  -- pkt addr: 0
  60000: system.dinocpu.verilatorMem.instPort: MEMORY RESPONSE RECIEVED
  60000: system.dinocpu.verilatorMem: Got response for addr 0xec
  60000: system.dinocpu.verilatorMem.dataPort: MEMORY RESPONSE RECIEVED
  60000: system.dinocpu.verilatorMem: Got response for addr 0
  61000: system.dinocpu: 
TICKING
  61000: system.dinocpu: INSTRUCTION FETCH?
  61000: system.dinocpu.verilatorMem: Sending fetch for addr (pa: 0xf0)
  61000: system.dinocpu.verilatorMem:  -- pkt addr: 0xf0
  61000: system.dinocpu.verilatorMem: Sending data request for addr (pa: 0)
  61000: system.dinocpu.verilatorMem:  -- pkt addr: 0
  61000: system.dinocpu.verilatorMem.instPort: MEMORY RESPONSE RECIEVED
  61000: system.dinocpu.verilatorMem: Got response for addr 0xf0
  61000: system.dinocpu.verilatorMem.dataPort: MEMORY RESPONSE RECIEVED
  61000: system.dinocpu.verilatorMem: Got response for addr 0
  62000: system.dinocpu: 
TICKING
  62000: system.dinocpu: INSTRUCTION FETCH?
  62000: system.dinocpu.verilatorMem: Sending fetch for addr (pa: 0xf4)
  62000: system.dinocpu.verilatorMem:  -- pkt addr: 0xf4
  62000: system.dinocpu.verilatorMem: Sending data request for addr (pa: 0)
  62000: system.dinocpu.verilatorMem:  -- pkt addr: 0
  62000: system.dinocpu.verilatorMem.instPort: MEMORY RESPONSE RECIEVED
  62000: system.dinocpu.verilatorMem: Got response for addr 0xf4
  62000: system.dinocpu.verilatorMem.dataPort: MEMORY RESPONSE RECIEVED
  62000: system.dinocpu.verilatorMem: Got response for addr 0
  63000: system.dinocpu: 
TICKING
  63000: system.dinocpu: INSTRUCTION FETCH?
  63000: system.dinocpu.verilatorMem: Sending fetch for addr (pa: 0xf8)
  63000: system.dinocpu.verilatorMem:  -- pkt addr: 0xf8
  63000: system.dinocpu.verilatorMem: Sending data request for addr (pa: 0)
  63000: system.dinocpu.verilatorMem:  -- pkt addr: 0
  63000: system.dinocpu.verilatorMem.instPort: MEMORY RESPONSE RECIEVED
  63000: system.dinocpu.verilatorMem: Got response for addr 0xf8
  63000: system.dinocpu.verilatorMem.dataPort: MEMORY RESPONSE RECIEVED
  63000: system.dinocpu.verilatorMem: Got response for addr 0
  64000: system.dinocpu: 
TICKING
  64000: system.dinocpu: INSTRUCTION FETCH?
  64000: system.dinocpu.verilatorMem: Sending fetch for addr (pa: 0xfc)
  64000: system.dinocpu.verilatorMem:  -- pkt addr: 0xfc
  64000: system.dinocpu.verilatorMem: Sending data request for addr (pa: 0)
  64000: system.dinocpu.verilatorMem:  -- pkt addr: 0
  64000: system.dinocpu.verilatorMem.instPort: MEMORY RESPONSE RECIEVED
  64000: system.dinocpu.verilatorMem: Got response for addr 0xfc
  64000: system.dinocpu.verilatorMem.dataPort: MEMORY RESPONSE RECIEVED
  64000: system.dinocpu.verilatorMem: Got response for addr 0
  65000: system.dinocpu: 
TICKING
  65000: system.dinocpu: INSTRUCTION FETCH?
  65000: system.dinocpu.verilatorMem: Sending fetch for addr (pa: 0x100)
  65000: system.dinocpu.verilatorMem:  -- pkt addr: 0x100
  65000: system.dinocpu.verilatorMem: Sending data request for addr (pa: 0)
  65000: system.dinocpu.verilatorMem:  -- pkt addr: 0
  65000: system.dinocpu.verilatorMem.instPort: MEMORY RESPONSE RECIEVED
  65000: system.dinocpu.verilatorMem: Got response for addr 0x100
  65000: system.dinocpu.verilatorMem.dataPort: MEMORY RESPONSE RECIEVED
  65000: system.dinocpu.verilatorMem: Got response for addr 0
  66000: system.dinocpu: 
TICKING
  66000: system.dinocpu: INSTRUCTION FETCH?
  66000: system.dinocpu.verilatorMem: Sending fetch for addr (pa: 0x104)
  66000: system.dinocpu.verilatorMem:  -- pkt addr: 0x104
  66000: system.dinocpu.verilatorMem: Sending data request for addr (pa: 0)
  66000: system.dinocpu.verilatorMem:  -- pkt addr: 0
  66000: system.dinocpu.verilatorMem.instPort: MEMORY RESPONSE RECIEVED
  66000: system.dinocpu.verilatorMem: Got response for addr 0x104
  66000: system.dinocpu.verilatorMem.dataPort: MEMORY RESPONSE RECIEVED
  66000: system.dinocpu.verilatorMem: Got response for addr 0
  67000: system.dinocpu: 
TICKING
  67000: system.dinocpu: INSTRUCTION FETCH?
  67000: system.dinocpu.verilatorMem: Sending fetch for addr (pa: 0x108)
  67000: system.dinocpu.verilatorMem:  -- pkt addr: 0x108
  67000: system.dinocpu.verilatorMem: Sending data request for addr (pa: 0)
  67000: system.dinocpu.verilatorMem:  -- pkt addr: 0
  67000: system.dinocpu.verilatorMem.instPort: MEMORY RESPONSE RECIEVED
  67000: system.dinocpu.verilatorMem: Got response for addr 0x108
  67000: system.dinocpu.verilatorMem.dataPort: MEMORY RESPONSE RECIEVED
  67000: system.dinocpu.verilatorMem: Got response for addr 0
  68000: system.dinocpu: 
TICKING
  68000: system.dinocpu: INSTRUCTION FETCH?
  68000: system.dinocpu.verilatorMem: Sending fetch for addr (pa: 0x10c)
  68000: system.dinocpu.verilatorMem:  -- pkt addr: 0x10c
  68000: system.dinocpu.verilatorMem: Sending data request for addr (pa: 0)
  68000: system.dinocpu.verilatorMem:  -- pkt addr: 0
  68000: system.dinocpu.verilatorMem.instPort: MEMORY RESPONSE RECIEVED
  68000: system.dinocpu.verilatorMem: Got response for addr 0x10c
  68000: system.dinocpu.verilatorMem.dataPort: MEMORY RESPONSE RECIEVED
  68000: system.dinocpu.verilatorMem: Got response for addr 0
  69000: system.dinocpu: 
TICKING
  69000: system.dinocpu: INSTRUCTION FETCH?
  69000: system.dinocpu.verilatorMem: Sending fetch for addr (pa: 0x110)
  69000: system.dinocpu.verilatorMem:  -- pkt addr: 0x110
  69000: system.dinocpu.verilatorMem: Sending data request for addr (pa: 0)
  69000: system.dinocpu.verilatorMem:  -- pkt addr: 0
  69000: system.dinocpu.verilatorMem.instPort: MEMORY RESPONSE RECIEVED
  69000: system.dinocpu.verilatorMem: Got response for addr 0x110
  69000: system.dinocpu.verilatorMem.dataPort: MEMORY RESPONSE RECIEVED
  69000: system.dinocpu.verilatorMem: Got response for addr 0
  70000: system.dinocpu: 
TICKING
  70000: system.dinocpu: INSTRUCTION FETCH?
  70000: system.dinocpu.verilatorMem: Sending fetch for addr (pa: 0x114)
  70000: system.dinocpu.verilatorMem:  -- pkt addr: 0x114
  70000: system.dinocpu.verilatorMem: Sending data request for addr (pa: 0)
  70000: system.dinocpu.verilatorMem:  -- pkt addr: 0
  70000: system.dinocpu.verilatorMem.instPort: MEMORY RESPONSE RECIEVED
  70000: system.dinocpu.verilatorMem: Got response for addr 0x114
  70000: system.dinocpu.verilatorMem.dataPort: MEMORY RESPONSE RECIEVED
  70000: system.dinocpu.verilatorMem: Got response for addr 0
  71000: system.dinocpu: 
TICKING
  71000: system.dinocpu: INSTRUCTION FETCH?
  71000: system.dinocpu.verilatorMem: Sending fetch for addr (pa: 0x118)
  71000: system.dinocpu.verilatorMem:  -- pkt addr: 0x118
  71000: system.dinocpu.verilatorMem: Sending data request for addr (pa: 0)
  71000: system.dinocpu.verilatorMem:  -- pkt addr: 0
  71000: system.dinocpu.verilatorMem.instPort: MEMORY RESPONSE RECIEVED
  71000: system.dinocpu.verilatorMem: Got response for addr 0x118
  71000: system.dinocpu.verilatorMem.dataPort: MEMORY RESPONSE RECIEVED
  71000: system.dinocpu.verilatorMem: Got response for addr 0
  72000: system.dinocpu: 
TICKING
  72000: system.dinocpu: INSTRUCTION FETCH?
  72000: system.dinocpu.verilatorMem: Sending fetch for addr (pa: 0x11c)
  72000: system.dinocpu.verilatorMem:  -- pkt addr: 0x11c
  72000: system.dinocpu.verilatorMem: Sending data request for addr (pa: 0)
  72000: system.dinocpu.verilatorMem:  -- pkt addr: 0
  72000: system.dinocpu.verilatorMem.instPort: MEMORY RESPONSE RECIEVED
  72000: system.dinocpu.verilatorMem: Got response for addr 0x11c
  72000: system.dinocpu.verilatorMem.dataPort: MEMORY RESPONSE RECIEVED
  72000: system.dinocpu.verilatorMem: Got response for addr 0
  73000: system.dinocpu: 
TICKING
  73000: system.dinocpu: INSTRUCTION FETCH?
  73000: system.dinocpu.verilatorMem: Sending fetch for addr (pa: 0x120)
  73000: system.dinocpu.verilatorMem:  -- pkt addr: 0x120
  73000: system.dinocpu.verilatorMem: Sending data request for addr (pa: 0)
  73000: system.dinocpu.verilatorMem:  -- pkt addr: 0
  73000: system.dinocpu.verilatorMem.instPort: MEMORY RESPONSE RECIEVED
  73000: system.dinocpu.verilatorMem: Got response for addr 0x120
  73000: system.dinocpu.verilatorMem.dataPort: MEMORY RESPONSE RECIEVED
  73000: system.dinocpu.verilatorMem: Got response for addr 0
  74000: system.dinocpu: 
TICKING
  74000: system.dinocpu: INSTRUCTION FETCH?
  74000: system.dinocpu.verilatorMem: Sending fetch for addr (pa: 0x124)
  74000: system.dinocpu.verilatorMem:  -- pkt addr: 0x124
  74000: system.dinocpu.verilatorMem: Sending data request for addr (pa: 0)
  74000: system.dinocpu.verilatorMem:  -- pkt addr: 0
  74000: system.dinocpu.verilatorMem.instPort: MEMORY RESPONSE RECIEVED
  74000: system.dinocpu.verilatorMem: Got response for addr 0x124
  74000: system.dinocpu.verilatorMem.dataPort: MEMORY RESPONSE RECIEVED
  74000: system.dinocpu.verilatorMem: Got response for addr 0
  75000: system.dinocpu: 
TICKING
  75000: system.dinocpu: INSTRUCTION FETCH?
  75000: system.dinocpu.verilatorMem: Sending fetch for addr (pa: 0x128)
  75000: system.dinocpu.verilatorMem:  -- pkt addr: 0x128
  75000: system.dinocpu.verilatorMem: Sending data request for addr (pa: 0)
  75000: system.dinocpu.verilatorMem:  -- pkt addr: 0
  75000: system.dinocpu.verilatorMem.instPort: MEMORY RESPONSE RECIEVED
  75000: system.dinocpu.verilatorMem: Got response for addr 0x128
  75000: system.dinocpu.verilatorMem.dataPort: MEMORY RESPONSE RECIEVED
  75000: system.dinocpu.verilatorMem: Got response for addr 0
  76000: system.dinocpu: 
TICKING
  76000: system.dinocpu: INSTRUCTION FETCH?
  76000: system.dinocpu.verilatorMem: Sending fetch for addr (pa: 0x12c)
  76000: system.dinocpu.verilatorMem:  -- pkt addr: 0x12c
  76000: system.dinocpu.verilatorMem: Sending data request for addr (pa: 0)
  76000: system.dinocpu.verilatorMem:  -- pkt addr: 0
  76000: system.dinocpu.verilatorMem.instPort: MEMORY RESPONSE RECIEVED
  76000: system.dinocpu.verilatorMem: Got response for addr 0x12c
  76000: system.dinocpu.verilatorMem.dataPort: MEMORY RESPONSE RECIEVED
  76000: system.dinocpu.verilatorMem: Got response for addr 0
  77000: system.dinocpu: 
TICKING
  77000: system.dinocpu: INSTRUCTION FETCH?
  77000: system.dinocpu.verilatorMem: Sending fetch for addr (pa: 0x130)
  77000: system.dinocpu.verilatorMem:  -- pkt addr: 0x130
  77000: system.dinocpu.verilatorMem: Sending data request for addr (pa: 0)
  77000: system.dinocpu.verilatorMem:  -- pkt addr: 0
  77000: system.dinocpu.verilatorMem.instPort: MEMORY RESPONSE RECIEVED
  77000: system.dinocpu.verilatorMem: Got response for addr 0x130
  77000: system.dinocpu.verilatorMem.dataPort: MEMORY RESPONSE RECIEVED
  77000: system.dinocpu.verilatorMem: Got response for addr 0
  78000: system.dinocpu: 
TICKING
  78000: system.dinocpu: INSTRUCTION FETCH?
  78000: system.dinocpu.verilatorMem: Sending fetch for addr (pa: 0x134)
  78000: system.dinocpu.verilatorMem:  -- pkt addr: 0x134
  78000: system.dinocpu.verilatorMem: Sending data request for addr (pa: 0)
  78000: system.dinocpu.verilatorMem:  -- pkt addr: 0
  78000: system.dinocpu.verilatorMem.instPort: MEMORY RESPONSE RECIEVED
  78000: system.dinocpu.verilatorMem: Got response for addr 0x134
  78000: system.dinocpu.verilatorMem.dataPort: MEMORY RESPONSE RECIEVED
  78000: system.dinocpu.verilatorMem: Got response for addr 0
  79000: system.dinocpu: 
TICKING
  79000: system.dinocpu: INSTRUCTION FETCH?
  79000: system.dinocpu.verilatorMem: Sending fetch for addr (pa: 0x138)
  79000: system.dinocpu.verilatorMem:  -- pkt addr: 0x138
  79000: system.dinocpu.verilatorMem: Sending data request for addr (pa: 0)
  79000: system.dinocpu.verilatorMem:  -- pkt addr: 0
  79000: system.dinocpu.verilatorMem.instPort: MEMORY RESPONSE RECIEVED
  79000: system.dinocpu.verilatorMem: Got response for addr 0x138
  79000: system.dinocpu.verilatorMem.dataPort: MEMORY RESPONSE RECIEVED
  79000: system.dinocpu.verilatorMem: Got response for addr 0
  80000: system.dinocpu: 
TICKING
  80000: system.dinocpu: INSTRUCTION FETCH?
  80000: system.dinocpu.verilatorMem: Sending fetch for addr (pa: 0x13c)
  80000: system.dinocpu.verilatorMem:  -- pkt addr: 0x13c
  80000: system.dinocpu.verilatorMem: Sending data request for addr (pa: 0)
  80000: system.dinocpu.verilatorMem:  -- pkt addr: 0
  80000: system.dinocpu.verilatorMem.instPort: MEMORY RESPONSE RECIEVED
  80000: system.dinocpu.verilatorMem: Got response for addr 0x13c
  80000: system.dinocpu.verilatorMem.dataPort: MEMORY RESPONSE RECIEVED
  80000: system.dinocpu.verilatorMem: Got response for addr 0
  81000: system.dinocpu: 
TICKING
  81000: system.dinocpu: INSTRUCTION FETCH?
  81000: system.dinocpu.verilatorMem: Sending fetch for addr (pa: 0x140)
  81000: system.dinocpu.verilatorMem:  -- pkt addr: 0x140
  81000: system.dinocpu.verilatorMem: Sending data request for addr (pa: 0)
  81000: system.dinocpu.verilatorMem:  -- pkt addr: 0
  81000: system.dinocpu.verilatorMem.instPort: MEMORY RESPONSE RECIEVED
  81000: system.dinocpu.verilatorMem: Got response for addr 0x140
  81000: system.dinocpu.verilatorMem.dataPort: MEMORY RESPONSE RECIEVED
  81000: system.dinocpu.verilatorMem: Got response for addr 0
  82000: system.dinocpu: 
TICKING
  82000: system.dinocpu: INSTRUCTION FETCH?
  82000: system.dinocpu.verilatorMem: Sending fetch for addr (pa: 0x144)
  82000: system.dinocpu.verilatorMem:  -- pkt addr: 0x144
  82000: system.dinocpu.verilatorMem: Sending data request for addr (pa: 0)
  82000: system.dinocpu.verilatorMem:  -- pkt addr: 0
  82000: system.dinocpu.verilatorMem.instPort: MEMORY RESPONSE RECIEVED
  82000: system.dinocpu.verilatorMem: Got response for addr 0x144
  82000: system.dinocpu.verilatorMem.dataPort: MEMORY RESPONSE RECIEVED
  82000: system.dinocpu.verilatorMem: Got response for addr 0
  83000: system.dinocpu: 
TICKING
  83000: system.dinocpu: INSTRUCTION FETCH?
  83000: system.dinocpu.verilatorMem: Sending fetch for addr (pa: 0x148)
  83000: system.dinocpu.verilatorMem:  -- pkt addr: 0x148
  83000: system.dinocpu.verilatorMem: Sending data request for addr (pa: 0)
  83000: system.dinocpu.verilatorMem:  -- pkt addr: 0
  83000: system.dinocpu.verilatorMem.instPort: MEMORY RESPONSE RECIEVED
  83000: system.dinocpu.verilatorMem: Got response for addr 0x148
  83000: system.dinocpu.verilatorMem.dataPort: MEMORY RESPONSE RECIEVED
  83000: system.dinocpu.verilatorMem: Got response for addr 0
  84000: system.dinocpu: 
TICKING
  84000: system.dinocpu: INSTRUCTION FETCH?
  84000: system.dinocpu.verilatorMem: Sending fetch for addr (pa: 0x14c)
  84000: system.dinocpu.verilatorMem:  -- pkt addr: 0x14c
  84000: system.dinocpu.verilatorMem: Sending data request for addr (pa: 0)
  84000: system.dinocpu.verilatorMem:  -- pkt addr: 0
  84000: system.dinocpu.verilatorMem.instPort: MEMORY RESPONSE RECIEVED
  84000: system.dinocpu.verilatorMem: Got response for addr 0x14c
  84000: system.dinocpu.verilatorMem.dataPort: MEMORY RESPONSE RECIEVED
  84000: system.dinocpu.verilatorMem: Got response for addr 0
  85000: system.dinocpu: 
TICKING
  85000: system.dinocpu: INSTRUCTION FETCH?
  85000: system.dinocpu.verilatorMem: Sending fetch for addr (pa: 0x150)
  85000: system.dinocpu.verilatorMem:  -- pkt addr: 0x150
  85000: system.dinocpu.verilatorMem: Sending data request for addr (pa: 0)
  85000: system.dinocpu.verilatorMem:  -- pkt addr: 0
  85000: system.dinocpu.verilatorMem.instPort: MEMORY RESPONSE RECIEVED
  85000: system.dinocpu.verilatorMem: Got response for addr 0x150
  85000: system.dinocpu.verilatorMem.dataPort: MEMORY RESPONSE RECIEVED
  85000: system.dinocpu.verilatorMem: Got response for addr 0
  86000: system.dinocpu: 
TICKING
  86000: system.dinocpu: INSTRUCTION FETCH?
  86000: system.dinocpu.verilatorMem: Sending fetch for addr (pa: 0x154)
  86000: system.dinocpu.verilatorMem:  -- pkt addr: 0x154
  86000: system.dinocpu.verilatorMem: Sending data request for addr (pa: 0)
  86000: system.dinocpu.verilatorMem:  -- pkt addr: 0
  86000: system.dinocpu.verilatorMem.instPort: MEMORY RESPONSE RECIEVED
  86000: system.dinocpu.verilatorMem: Got response for addr 0x154
  86000: system.dinocpu.verilatorMem.dataPort: MEMORY RESPONSE RECIEVED
  86000: system.dinocpu.verilatorMem: Got response for addr 0
  87000: system.dinocpu: 
TICKING
  87000: system.dinocpu: INSTRUCTION FETCH?
  87000: system.dinocpu.verilatorMem: Sending fetch for addr (pa: 0x158)
  87000: system.dinocpu.verilatorMem:  -- pkt addr: 0x158
  87000: system.dinocpu.verilatorMem: Sending data request for addr (pa: 0)
  87000: system.dinocpu.verilatorMem:  -- pkt addr: 0
  87000: system.dinocpu.verilatorMem.instPort: MEMORY RESPONSE RECIEVED
  87000: system.dinocpu.verilatorMem: Got response for addr 0x158
  87000: system.dinocpu.verilatorMem.dataPort: MEMORY RESPONSE RECIEVED
  87000: system.dinocpu.verilatorMem: Got response for addr 0
  88000: system.dinocpu: 
TICKING
  88000: system.dinocpu: INSTRUCTION FETCH?
  88000: system.dinocpu.verilatorMem: Sending fetch for addr (pa: 0x15c)
  88000: system.dinocpu.verilatorMem:  -- pkt addr: 0x15c
  88000: system.dinocpu.verilatorMem: Sending data request for addr (pa: 0)
  88000: system.dinocpu.verilatorMem:  -- pkt addr: 0
  88000: system.dinocpu.verilatorMem.instPort: MEMORY RESPONSE RECIEVED
  88000: system.dinocpu.verilatorMem: Got response for addr 0x15c
  88000: system.dinocpu.verilatorMem.dataPort: MEMORY RESPONSE RECIEVED
  88000: system.dinocpu.verilatorMem: Got response for addr 0
  89000: system.dinocpu: 
TICKING
  89000: system.dinocpu: INSTRUCTION FETCH?
  89000: system.dinocpu.verilatorMem: Sending fetch for addr (pa: 0x160)
  89000: system.dinocpu.verilatorMem:  -- pkt addr: 0x160
  89000: system.dinocpu.verilatorMem: Sending data request for addr (pa: 0)
  89000: system.dinocpu.verilatorMem:  -- pkt addr: 0
  89000: system.dinocpu.verilatorMem.instPort: MEMORY RESPONSE RECIEVED
  89000: system.dinocpu.verilatorMem: Got response for addr 0x160
  89000: system.dinocpu.verilatorMem.dataPort: MEMORY RESPONSE RECIEVED
  89000: system.dinocpu.verilatorMem: Got response for addr 0
  90000: system.dinocpu: 
TICKING
  90000: system.dinocpu: INSTRUCTION FETCH?
  90000: system.dinocpu.verilatorMem: Sending fetch for addr (pa: 0x164)
  90000: system.dinocpu.verilatorMem:  -- pkt addr: 0x164
  90000: system.dinocpu.verilatorMem: Sending data request for addr (pa: 0)
  90000: system.dinocpu.verilatorMem:  -- pkt addr: 0
  90000: system.dinocpu.verilatorMem.instPort: MEMORY RESPONSE RECIEVED
  90000: system.dinocpu.verilatorMem: Got response for addr 0x164
  90000: system.dinocpu.verilatorMem.dataPort: MEMORY RESPONSE RECIEVED
  90000: system.dinocpu.verilatorMem: Got response for addr 0
  91000: system.dinocpu: 
TICKING
  91000: system.dinocpu: INSTRUCTION FETCH?
  91000: system.dinocpu.verilatorMem: Sending fetch for addr (pa: 0x168)
  91000: system.dinocpu.verilatorMem:  -- pkt addr: 0x168
  91000: system.dinocpu.verilatorMem: Sending data request for addr (pa: 0)
  91000: system.dinocpu.verilatorMem:  -- pkt addr: 0
  91000: system.dinocpu.verilatorMem.instPort: MEMORY RESPONSE RECIEVED
  91000: system.dinocpu.verilatorMem: Got response for addr 0x168
  91000: system.dinocpu.verilatorMem.dataPort: MEMORY RESPONSE RECIEVED
  91000: system.dinocpu.verilatorMem: Got response for addr 0
  92000: system.dinocpu: 
TICKING
  92000: system.dinocpu: INSTRUCTION FETCH?
  92000: system.dinocpu.verilatorMem: Sending fetch for addr (pa: 0x16c)
  92000: system.dinocpu.verilatorMem:  -- pkt addr: 0x16c
  92000: system.dinocpu.verilatorMem: Sending data request for addr (pa: 0)
  92000: system.dinocpu.verilatorMem:  -- pkt addr: 0
  92000: system.dinocpu.verilatorMem.instPort: MEMORY RESPONSE RECIEVED
  92000: system.dinocpu.verilatorMem: Got response for addr 0x16c
  92000: system.dinocpu.verilatorMem.dataPort: MEMORY RESPONSE RECIEVED
  92000: system.dinocpu.verilatorMem: Got response for addr 0
  93000: system.dinocpu: 
TICKING
  93000: system.dinocpu: INSTRUCTION FETCH?
  93000: system.dinocpu.verilatorMem: Sending fetch for addr (pa: 0x170)
  93000: system.dinocpu.verilatorMem:  -- pkt addr: 0x170
  93000: system.dinocpu.verilatorMem: Sending data request for addr (pa: 0)
  93000: system.dinocpu.verilatorMem:  -- pkt addr: 0
  93000: system.dinocpu.verilatorMem.instPort: MEMORY RESPONSE RECIEVED
  93000: system.dinocpu.verilatorMem: Got response for addr 0x170
  93000: system.dinocpu.verilatorMem.dataPort: MEMORY RESPONSE RECIEVED
  93000: system.dinocpu.verilatorMem: Got response for addr 0
  94000: system.dinocpu: 
TICKING
  94000: system.dinocpu: INSTRUCTION FETCH?
  94000: system.dinocpu.verilatorMem: Sending fetch for addr (pa: 0x174)
  94000: system.dinocpu.verilatorMem:  -- pkt addr: 0x174
  94000: system.dinocpu.verilatorMem: Sending data request for addr (pa: 0)
  94000: system.dinocpu.verilatorMem:  -- pkt addr: 0
  94000: system.dinocpu.verilatorMem.instPort: MEMORY RESPONSE RECIEVED
  94000: system.dinocpu.verilatorMem: Got response for addr 0x174
  94000: system.dinocpu.verilatorMem.dataPort: MEMORY RESPONSE RECIEVED
  94000: system.dinocpu.verilatorMem: Got response for addr 0
  95000: system.dinocpu: 
TICKING
  95000: system.dinocpu: INSTRUCTION FETCH?
  95000: system.dinocpu.verilatorMem: Sending fetch for addr (pa: 0x178)
  95000: system.dinocpu.verilatorMem:  -- pkt addr: 0x178
  95000: system.dinocpu.verilatorMem: Sending data request for addr (pa: 0)
  95000: system.dinocpu.verilatorMem:  -- pkt addr: 0
  95000: system.dinocpu.verilatorMem.instPort: MEMORY RESPONSE RECIEVED
  95000: system.dinocpu.verilatorMem: Got response for addr 0x178
  95000: system.dinocpu.verilatorMem.dataPort: MEMORY RESPONSE RECIEVED
  95000: system.dinocpu.verilatorMem: Got response for addr 0
  96000: system.dinocpu: 
TICKING
  96000: system.dinocpu: INSTRUCTION FETCH?
  96000: system.dinocpu.verilatorMem: Sending fetch for addr (pa: 0x17c)
  96000: system.dinocpu.verilatorMem:  -- pkt addr: 0x17c
  96000: system.dinocpu.verilatorMem: Sending data request for addr (pa: 0)
  96000: system.dinocpu.verilatorMem:  -- pkt addr: 0
  96000: system.dinocpu.verilatorMem.instPort: MEMORY RESPONSE RECIEVED
  96000: system.dinocpu.verilatorMem: Got response for addr 0x17c
  96000: system.dinocpu.verilatorMem.dataPort: MEMORY RESPONSE RECIEVED
  96000: system.dinocpu.verilatorMem: Got response for addr 0
  97000: system.dinocpu: 
TICKING
  97000: system.dinocpu: INSTRUCTION FETCH?
  97000: system.dinocpu.verilatorMem: Sending fetch for addr (pa: 0x180)
  97000: system.dinocpu.verilatorMem:  -- pkt addr: 0x180
  97000: system.dinocpu.verilatorMem: Sending data request for addr (pa: 0)
  97000: system.dinocpu.verilatorMem:  -- pkt addr: 0
  97000: system.dinocpu.verilatorMem.instPort: MEMORY RESPONSE RECIEVED
  97000: system.dinocpu.verilatorMem: Got response for addr 0x180
  97000: system.dinocpu.verilatorMem.dataPort: MEMORY RESPONSE RECIEVED
  97000: system.dinocpu.verilatorMem: Got response for addr 0
  98000: system.dinocpu: 
TICKING
  98000: system.dinocpu: INSTRUCTION FETCH?
  98000: system.dinocpu.verilatorMem: Sending fetch for addr (pa: 0x184)
  98000: system.dinocpu.verilatorMem:  -- pkt addr: 0x184
  98000: system.dinocpu.verilatorMem: Sending data request for addr (pa: 0)
  98000: system.dinocpu.verilatorMem:  -- pkt addr: 0
  98000: system.dinocpu.verilatorMem.instPort: MEMORY RESPONSE RECIEVED
  98000: system.dinocpu.verilatorMem: Got response for addr 0x184
  98000: system.dinocpu.verilatorMem.dataPort: MEMORY RESPONSE RECIEVED
  98000: system.dinocpu.verilatorMem: Got response for addr 0
  99000: system.dinocpu: 
TICKING
  99000: system.dinocpu: INSTRUCTION FETCH?
  99000: system.dinocpu.verilatorMem: Sending fetch for addr (pa: 0x188)
  99000: system.dinocpu.verilatorMem:  -- pkt addr: 0x188
  99000: system.dinocpu.verilatorMem: Sending data request for addr (pa: 0)
  99000: system.dinocpu.verilatorMem:  -- pkt addr: 0
  99000: system.dinocpu.verilatorMem.instPort: MEMORY RESPONSE RECIEVED
  99000: system.dinocpu.verilatorMem: Got response for addr 0x188
  99000: system.dinocpu.verilatorMem.dataPort: MEMORY RESPONSE RECIEVED
  99000: system.dinocpu.verilatorMem: Got response for addr 0
 100000: system.dinocpu: 
TICKING
 100000: system.dinocpu: INSTRUCTION FETCH?
 100000: system.dinocpu.verilatorMem: Sending fetch for addr (pa: 0x18c)
 100000: system.dinocpu.verilatorMem:  -- pkt addr: 0x18c
 100000: system.dinocpu.verilatorMem: Sending data request for addr (pa: 0)
 100000: system.dinocpu.verilatorMem:  -- pkt addr: 0
 100000: system.dinocpu.verilatorMem.instPort: MEMORY RESPONSE RECIEVED
 100000: system.dinocpu.verilatorMem: Got response for addr 0x18c
 100000: system.dinocpu.verilatorMem.dataPort: MEMORY RESPONSE RECIEVED
 100000: system.dinocpu.verilatorMem: Got response for addr 0
 101000: system.dinocpu: 
TICKING
 101000: system.dinocpu: INSTRUCTION FETCH?
 101000: system.dinocpu.verilatorMem: Sending fetch for addr (pa: 0x190)
 101000: system.dinocpu.verilatorMem:  -- pkt addr: 0x190
 101000: system.dinocpu.verilatorMem: Sending data request for addr (pa: 0)
 101000: system.dinocpu.verilatorMem:  -- pkt addr: 0
 101000: system.dinocpu.verilatorMem.instPort: MEMORY RESPONSE RECIEVED
 101000: system.dinocpu.verilatorMem: Got response for addr 0x190
 101000: system.dinocpu.verilatorMem.dataPort: MEMORY RESPONSE RECIEVED
 101000: system.dinocpu.verilatorMem: Got response for addr 0
 102000: system.dinocpu: 
TICKING
 102000: system.dinocpu: INSTRUCTION FETCH?
 102000: system.dinocpu.verilatorMem: Sending fetch for addr (pa: 0x194)
 102000: system.dinocpu.verilatorMem:  -- pkt addr: 0x194
 102000: system.dinocpu.verilatorMem: Sending data request for addr (pa: 0)
 102000: system.dinocpu.verilatorMem:  -- pkt addr: 0
 102000: system.dinocpu.verilatorMem.instPort: MEMORY RESPONSE RECIEVED
 102000: system.dinocpu.verilatorMem: Got response for addr 0x194
 102000: system.dinocpu.verilatorMem.dataPort: MEMORY RESPONSE RECIEVED
 102000: system.dinocpu.verilatorMem: Got response for addr 0
 103000: system.dinocpu: 
TICKING
 103000: system.dinocpu: INSTRUCTION FETCH?
 103000: system.dinocpu.verilatorMem: Sending fetch for addr (pa: 0x198)
 103000: system.dinocpu.verilatorMem:  -- pkt addr: 0x198
 103000: system.dinocpu.verilatorMem: Sending data request for addr (pa: 0)
 103000: system.dinocpu.verilatorMem:  -- pkt addr: 0
 103000: system.dinocpu.verilatorMem.instPort: MEMORY RESPONSE RECIEVED
 103000: system.dinocpu.verilatorMem: Got response for addr 0x198
 103000: system.dinocpu.verilatorMem.dataPort: MEMORY RESPONSE RECIEVED
 103000: system.dinocpu.verilatorMem: Got response for addr 0
 104000: system.dinocpu: 
TICKING
 104000: system.dinocpu: INSTRUCTION FETCH?
 104000: system.dinocpu.verilatorMem: Sending fetch for addr (pa: 0x19c)
 104000: system.dinocpu.verilatorMem:  -- pkt addr: 0x19c
 104000: system.dinocpu.verilatorMem: Sending data request for addr (pa: 0)
 104000: system.dinocpu.verilatorMem:  -- pkt addr: 0
 104000: system.dinocpu.verilatorMem.instPort: MEMORY RESPONSE RECIEVED
 104000: system.dinocpu.verilatorMem: Got response for addr 0x19c
 104000: system.dinocpu.verilatorMem.dataPort: MEMORY RESPONSE RECIEVED
 104000: system.dinocpu.verilatorMem: Got response for addr 0
 105000: system.dinocpu: 
TICKING
 105000: system.dinocpu: INSTRUCTION FETCH?
 105000: system.dinocpu.verilatorMem: Sending fetch for addr (pa: 0x1a0)
 105000: system.dinocpu.verilatorMem:  -- pkt addr: 0x1a0
 105000: system.dinocpu.verilatorMem: Sending data request for addr (pa: 0)
 105000: system.dinocpu.verilatorMem:  -- pkt addr: 0
 105000: system.dinocpu.verilatorMem.instPort: MEMORY RESPONSE RECIEVED
 105000: system.dinocpu.verilatorMem: Got response for addr 0x1a0
 105000: system.dinocpu.verilatorMem.dataPort: MEMORY RESPONSE RECIEVED
 105000: system.dinocpu.verilatorMem: Got response for addr 0
 106000: system.dinocpu: 
TICKING
 106000: system.dinocpu: INSTRUCTION FETCH?
 106000: system.dinocpu.verilatorMem: Sending fetch for addr (pa: 0x1a4)
 106000: system.dinocpu.verilatorMem:  -- pkt addr: 0x1a4
 106000: system.dinocpu.verilatorMem: Sending data request for addr (pa: 0)
 106000: system.dinocpu.verilatorMem:  -- pkt addr: 0
 106000: system.dinocpu.verilatorMem.instPort: MEMORY RESPONSE RECIEVED
 106000: system.dinocpu.verilatorMem: Got response for addr 0x1a4
 106000: system.dinocpu.verilatorMem.dataPort: MEMORY RESPONSE RECIEVED
 106000: system.dinocpu.verilatorMem: Got response for addr 0
 107000: system.dinocpu: 
TICKING
 107000: system.dinocpu: INSTRUCTION FETCH?
 107000: system.dinocpu.verilatorMem: Sending fetch for addr (pa: 0x1a8)
 107000: system.dinocpu.verilatorMem:  -- pkt addr: 0x1a8
 107000: system.dinocpu.verilatorMem: Sending data request for addr (pa: 0)
 107000: system.dinocpu.verilatorMem:  -- pkt addr: 0
 107000: system.dinocpu.verilatorMem.instPort: MEMORY RESPONSE RECIEVED
 107000: system.dinocpu.verilatorMem: Got response for addr 0x1a8
 107000: system.dinocpu.verilatorMem.dataPort: MEMORY RESPONSE RECIEVED
 107000: system.dinocpu.verilatorMem: Got response for addr 0
 108000: system.dinocpu: 
TICKING
 108000: system.dinocpu: INSTRUCTION FETCH?
 108000: system.dinocpu.verilatorMem: Sending fetch for addr (pa: 0x1ac)
 108000: system.dinocpu.verilatorMem:  -- pkt addr: 0x1ac
 108000: system.dinocpu.verilatorMem: Sending data request for addr (pa: 0)
 108000: system.dinocpu.verilatorMem:  -- pkt addr: 0
 108000: system.dinocpu.verilatorMem.instPort: MEMORY RESPONSE RECIEVED
 108000: system.dinocpu.verilatorMem: Got response for addr 0x1ac
 108000: system.dinocpu.verilatorMem.dataPort: MEMORY RESPONSE RECIEVED
 108000: system.dinocpu.verilatorMem: Got response for addr 0
 109000: system.dinocpu: 
TICKING
 109000: system.dinocpu: INSTRUCTION FETCH?
 109000: system.dinocpu.verilatorMem: Sending fetch for addr (pa: 0x1b0)
 109000: system.dinocpu.verilatorMem:  -- pkt addr: 0x1b0
 109000: system.dinocpu.verilatorMem: Sending data request for addr (pa: 0)
 109000: system.dinocpu.verilatorMem:  -- pkt addr: 0
 109000: system.dinocpu.verilatorMem.instPort: MEMORY RESPONSE RECIEVED
 109000: system.dinocpu.verilatorMem: Got response for addr 0x1b0
 109000: system.dinocpu.verilatorMem.dataPort: MEMORY RESPONSE RECIEVED
 109000: system.dinocpu.verilatorMem: Got response for addr 0
 110000: system.dinocpu: 
TICKING
 110000: system.dinocpu: INSTRUCTION FETCH?
 110000: system.dinocpu.verilatorMem: Sending fetch for addr (pa: 0x1b4)
 110000: system.dinocpu.verilatorMem:  -- pkt addr: 0x1b4
 110000: system.dinocpu.verilatorMem: Sending data request for addr (pa: 0)
 110000: system.dinocpu.verilatorMem:  -- pkt addr: 0
 110000: system.dinocpu.verilatorMem.instPort: MEMORY RESPONSE RECIEVED
 110000: system.dinocpu.verilatorMem: Got response for addr 0x1b4
 110000: system.dinocpu.verilatorMem.dataPort: MEMORY RESPONSE RECIEVED
 110000: system.dinocpu.verilatorMem: Got response for addr 0
 111000: system.dinocpu: 
TICKING
 111000: system.dinocpu: INSTRUCTION FETCH?
 111000: system.dinocpu.verilatorMem: Sending fetch for addr (pa: 0x1b8)
 111000: system.dinocpu.verilatorMem:  -- pkt addr: 0x1b8
 111000: system.dinocpu.verilatorMem: Sending data request for addr (pa: 0)
 111000: system.dinocpu.verilatorMem:  -- pkt addr: 0
 111000: system.dinocpu.verilatorMem.instPort: MEMORY RESPONSE RECIEVED
 111000: system.dinocpu.verilatorMem: Got response for addr 0x1b8
 111000: system.dinocpu.verilatorMem.dataPort: MEMORY RESPONSE RECIEVED
 111000: system.dinocpu.verilatorMem: Got response for addr 0
 112000: system.dinocpu: 
TICKING
 112000: system.dinocpu: INSTRUCTION FETCH?
 112000: system.dinocpu.verilatorMem: Sending fetch for addr (pa: 0x1bc)
 112000: system.dinocpu.verilatorMem:  -- pkt addr: 0x1bc
 112000: system.dinocpu.verilatorMem: Sending data request for addr (pa: 0)
 112000: system.dinocpu.verilatorMem:  -- pkt addr: 0
 112000: system.dinocpu.verilatorMem.instPort: MEMORY RESPONSE RECIEVED
 112000: system.dinocpu.verilatorMem: Got response for addr 0x1bc
 112000: system.dinocpu.verilatorMem.dataPort: MEMORY RESPONSE RECIEVED
 112000: system.dinocpu.verilatorMem: Got response for addr 0
 113000: system.dinocpu: 
TICKING
 113000: system.dinocpu: INSTRUCTION FETCH?
 113000: system.dinocpu.verilatorMem: Sending fetch for addr (pa: 0x1c0)
 113000: system.dinocpu.verilatorMem:  -- pkt addr: 0x1c0
 113000: system.dinocpu.verilatorMem: Sending data request for addr (pa: 0)
 113000: system.dinocpu.verilatorMem:  -- pkt addr: 0
 113000: system.dinocpu.verilatorMem.instPort: MEMORY RESPONSE RECIEVED
 113000: system.dinocpu.verilatorMem: Got response for addr 0x1c0
 113000: system.dinocpu.verilatorMem.dataPort: MEMORY RESPONSE RECIEVED
 113000: system.dinocpu.verilatorMem: Got response for addr 0
 114000: system.dinocpu: 
TICKING
 114000: system.dinocpu: INSTRUCTION FETCH?
 114000: system.dinocpu.verilatorMem: Sending fetch for addr (pa: 0x1c4)
 114000: system.dinocpu.verilatorMem:  -- pkt addr: 0x1c4
 114000: system.dinocpu.verilatorMem: Sending data request for addr (pa: 0)
 114000: system.dinocpu.verilatorMem:  -- pkt addr: 0
 114000: system.dinocpu.verilatorMem.instPort: MEMORY RESPONSE RECIEVED
 114000: system.dinocpu.verilatorMem: Got response for addr 0x1c4
 114000: system.dinocpu.verilatorMem.dataPort: MEMORY RESPONSE RECIEVED
 114000: system.dinocpu.verilatorMem: Got response for addr 0
 115000: system.dinocpu: 
TICKING
 115000: system.dinocpu: INSTRUCTION FETCH?
 115000: system.dinocpu.verilatorMem: Sending fetch for addr (pa: 0x1c8)
 115000: system.dinocpu.verilatorMem:  -- pkt addr: 0x1c8
 115000: system.dinocpu.verilatorMem: Sending data request for addr (pa: 0)
 115000: system.dinocpu.verilatorMem:  -- pkt addr: 0
 115000: system.dinocpu.verilatorMem.instPort: MEMORY RESPONSE RECIEVED
 115000: system.dinocpu.verilatorMem: Got response for addr 0x1c8
 115000: system.dinocpu.verilatorMem.dataPort: MEMORY RESPONSE RECIEVED
 115000: system.dinocpu.verilatorMem: Got response for addr 0
 116000: system.dinocpu: 
TICKING
 116000: system.dinocpu: INSTRUCTION FETCH?
 116000: system.dinocpu.verilatorMem: Sending fetch for addr (pa: 0x1cc)
 116000: system.dinocpu.verilatorMem:  -- pkt addr: 0x1cc
 116000: system.dinocpu.verilatorMem: Sending data request for addr (pa: 0)
 116000: system.dinocpu.verilatorMem:  -- pkt addr: 0
 116000: system.dinocpu.verilatorMem.instPort: MEMORY RESPONSE RECIEVED
 116000: system.dinocpu.verilatorMem: Got response for addr 0x1cc
 116000: system.dinocpu.verilatorMem.dataPort: MEMORY RESPONSE RECIEVED
 116000: system.dinocpu.verilatorMem: Got response for addr 0
 117000: system.dinocpu: 
TICKING
 117000: system.dinocpu: INSTRUCTION FETCH?
 117000: system.dinocpu.verilatorMem: Sending fetch for addr (pa: 0x1d0)
 117000: system.dinocpu.verilatorMem:  -- pkt addr: 0x1d0
 117000: system.dinocpu.verilatorMem: Sending data request for addr (pa: 0)
 117000: system.dinocpu.verilatorMem:  -- pkt addr: 0
 117000: system.dinocpu.verilatorMem.instPort: MEMORY RESPONSE RECIEVED
 117000: system.dinocpu.verilatorMem: Got response for addr 0x1d0
 117000: system.dinocpu.verilatorMem.dataPort: MEMORY RESPONSE RECIEVED
 117000: system.dinocpu.verilatorMem: Got response for addr 0
 118000: system.dinocpu: 
TICKING
 118000: system.dinocpu: INSTRUCTION FETCH?
 118000: system.dinocpu.verilatorMem: Sending fetch for addr (pa: 0x1d4)
 118000: system.dinocpu.verilatorMem:  -- pkt addr: 0x1d4
 118000: system.dinocpu.verilatorMem: Sending data request for addr (pa: 0)
 118000: system.dinocpu.verilatorMem:  -- pkt addr: 0
 118000: system.dinocpu.verilatorMem.instPort: MEMORY RESPONSE RECIEVED
 118000: system.dinocpu.verilatorMem: Got response for addr 0x1d4
 118000: system.dinocpu.verilatorMem.dataPort: MEMORY RESPONSE RECIEVED
 118000: system.dinocpu.verilatorMem: Got response for addr 0
 119000: system.dinocpu: 
TICKING
 119000: system.dinocpu: INSTRUCTION FETCH?
 119000: system.dinocpu.verilatorMem: Sending fetch for addr (pa: 0x1d8)
 119000: system.dinocpu.verilatorMem:  -- pkt addr: 0x1d8
 119000: system.dinocpu.verilatorMem: Sending data request for addr (pa: 0)
 119000: system.dinocpu.verilatorMem:  -- pkt addr: 0
 119000: system.dinocpu.verilatorMem.instPort: MEMORY RESPONSE RECIEVED
 119000: system.dinocpu.verilatorMem: Got response for addr 0x1d8
 119000: system.dinocpu.verilatorMem.dataPort: MEMORY RESPONSE RECIEVED
 119000: system.dinocpu.verilatorMem: Got response for addr 0
 120000: system.dinocpu: 
TICKING
 120000: system.dinocpu: INSTRUCTION FETCH?
 120000: system.dinocpu.verilatorMem: Sending fetch for addr (pa: 0x1dc)
 120000: system.dinocpu.verilatorMem:  -- pkt addr: 0x1dc
 120000: system.dinocpu.verilatorMem: Sending data request for addr (pa: 0)
 120000: system.dinocpu.verilatorMem:  -- pkt addr: 0
 120000: system.dinocpu.verilatorMem.instPort: MEMORY RESPONSE RECIEVED
 120000: system.dinocpu.verilatorMem: Got response for addr 0x1dc
 120000: system.dinocpu.verilatorMem.dataPort: MEMORY RESPONSE RECIEVED
 120000: system.dinocpu.verilatorMem: Got response for addr 0
 121000: system.dinocpu: 
TICKING
 121000: system.dinocpu: INSTRUCTION FETCH?
 121000: system.dinocpu.verilatorMem: Sending fetch for addr (pa: 0x1e0)
 121000: system.dinocpu.verilatorMem:  -- pkt addr: 0x1e0
 121000: system.dinocpu.verilatorMem: Sending data request for addr (pa: 0)
 121000: system.dinocpu.verilatorMem:  -- pkt addr: 0
 121000: system.dinocpu.verilatorMem.instPort: MEMORY RESPONSE RECIEVED
 121000: system.dinocpu.verilatorMem: Got response for addr 0x1e0
 121000: system.dinocpu.verilatorMem.dataPort: MEMORY RESPONSE RECIEVED
 121000: system.dinocpu.verilatorMem: Got response for addr 0
 122000: system.dinocpu: 
TICKING
 122000: system.dinocpu: INSTRUCTION FETCH?
 122000: system.dinocpu.verilatorMem: Sending fetch for addr (pa: 0x1e4)
 122000: system.dinocpu.verilatorMem:  -- pkt addr: 0x1e4
 122000: system.dinocpu.verilatorMem: Sending data request for addr (pa: 0)
 122000: system.dinocpu.verilatorMem:  -- pkt addr: 0
 122000: system.dinocpu.verilatorMem.instPort: MEMORY RESPONSE RECIEVED
 122000: system.dinocpu.verilatorMem: Got response for addr 0x1e4
 122000: system.dinocpu.verilatorMem.dataPort: MEMORY RESPONSE RECIEVED
 122000: system.dinocpu.verilatorMem: Got response for addr 0
 123000: system.dinocpu: 
TICKING
 123000: system.dinocpu: INSTRUCTION FETCH?
 123000: system.dinocpu.verilatorMem: Sending fetch for addr (pa: 0x1e8)
 123000: system.dinocpu.verilatorMem:  -- pkt addr: 0x1e8
 123000: system.dinocpu.verilatorMem: Sending data request for addr (pa: 0)
 123000: system.dinocpu.verilatorMem:  -- pkt addr: 0
 123000: system.dinocpu.verilatorMem.instPort: MEMORY RESPONSE RECIEVED
 123000: system.dinocpu.verilatorMem: Got response for addr 0x1e8
 123000: system.dinocpu.verilatorMem.dataPort: MEMORY RESPONSE RECIEVED
 123000: system.dinocpu.verilatorMem: Got response for addr 0
 124000: system.dinocpu: 
TICKING
 124000: system.dinocpu: INSTRUCTION FETCH?
 124000: system.dinocpu.verilatorMem: Sending fetch for addr (pa: 0x1ec)
 124000: system.dinocpu.verilatorMem:  -- pkt addr: 0x1ec
 124000: system.dinocpu.verilatorMem: Sending data request for addr (pa: 0)
 124000: system.dinocpu.verilatorMem:  -- pkt addr: 0
 124000: system.dinocpu.verilatorMem.instPort: MEMORY RESPONSE RECIEVED
 124000: system.dinocpu.verilatorMem: Got response for addr 0x1ec
 124000: system.dinocpu.verilatorMem.dataPort: MEMORY RESPONSE RECIEVED
 124000: system.dinocpu.verilatorMem: Got response for addr 0
 125000: system.dinocpu: 
TICKING
 125000: system.dinocpu: INSTRUCTION FETCH?
 125000: system.dinocpu.verilatorMem: Sending fetch for addr (pa: 0x1f0)
 125000: system.dinocpu.verilatorMem:  -- pkt addr: 0x1f0
 125000: system.dinocpu.verilatorMem: Sending data request for addr (pa: 0)
 125000: system.dinocpu.verilatorMem:  -- pkt addr: 0
 125000: system.dinocpu.verilatorMem.instPort: MEMORY RESPONSE RECIEVED
 125000: system.dinocpu.verilatorMem: Got response for addr 0x1f0
 125000: system.dinocpu.verilatorMem.dataPort: MEMORY RESPONSE RECIEVED
 125000: system.dinocpu.verilatorMem: Got response for addr 0
 126000: system.dinocpu: 
TICKING
 126000: system.dinocpu: INSTRUCTION FETCH?
 126000: system.dinocpu.verilatorMem: Sending fetch for addr (pa: 0x1f4)
 126000: system.dinocpu.verilatorMem:  -- pkt addr: 0x1f4
 126000: system.dinocpu.verilatorMem: Sending data request for addr (pa: 0)
 126000: system.dinocpu.verilatorMem:  -- pkt addr: 0
 126000: system.dinocpu.verilatorMem.instPort: MEMORY RESPONSE RECIEVED
 126000: system.dinocpu.verilatorMem: Got response for addr 0x1f4
 126000: system.dinocpu.verilatorMem.dataPort: MEMORY RESPONSE RECIEVED
 126000: system.dinocpu.verilatorMem: Got response for addr 0
 127000: system.dinocpu: 
TICKING
 127000: system.dinocpu: INSTRUCTION FETCH?
 127000: system.dinocpu.verilatorMem: Sending fetch for addr (pa: 0x1f8)
 127000: system.dinocpu.verilatorMem:  -- pkt addr: 0x1f8
 127000: system.dinocpu.verilatorMem: Sending data request for addr (pa: 0)
 127000: system.dinocpu.verilatorMem:  -- pkt addr: 0
 127000: system.dinocpu.verilatorMem.instPort: MEMORY RESPONSE RECIEVED
 127000: system.dinocpu.verilatorMem: Got response for addr 0x1f8
 127000: system.dinocpu.verilatorMem.dataPort: MEMORY RESPONSE RECIEVED
 127000: system.dinocpu.verilatorMem: Got response for addr 0
 128000: system.dinocpu: 
TICKING
 128000: system.dinocpu: INSTRUCTION FETCH?
 128000: system.dinocpu.verilatorMem: Sending fetch for addr (pa: 0x1fc)
 128000: system.dinocpu.verilatorMem:  -- pkt addr: 0x1fc
 128000: system.dinocpu.verilatorMem: Sending data request for addr (pa: 0)
 128000: system.dinocpu.verilatorMem:  -- pkt addr: 0
 128000: system.dinocpu.verilatorMem.instPort: MEMORY RESPONSE RECIEVED
 128000: system.dinocpu.verilatorMem: Got response for addr 0x1fc
 128000: system.dinocpu.verilatorMem.dataPort: MEMORY RESPONSE RECIEVED
 128000: system.dinocpu.verilatorMem: Got response for addr 0
 129000: system.dinocpu: 
TICKING
 129000: system.dinocpu: INSTRUCTION FETCH?
 129000: system.dinocpu.verilatorMem: Sending fetch for addr (pa: 0x200)
 129000: system.dinocpu.verilatorMem:  -- pkt addr: 0x200
 129000: system.dinocpu.verilatorMem: Sending data request for addr (pa: 0)
 129000: system.dinocpu.verilatorMem:  -- pkt addr: 0
 129000: system.dinocpu.verilatorMem.instPort: MEMORY RESPONSE RECIEVED
 129000: system.dinocpu.verilatorMem: Got response for addr 0x200
 129000: system.dinocpu.verilatorMem.dataPort: MEMORY RESPONSE RECIEVED
 129000: system.dinocpu.verilatorMem: Got response for addr 0
 130000: system.dinocpu: 
TICKING
 130000: system.dinocpu: INSTRUCTION FETCH?
 130000: system.dinocpu.verilatorMem: Sending fetch for addr (pa: 0x204)
 130000: system.dinocpu.verilatorMem:  -- pkt addr: 0x204
 130000: system.dinocpu.verilatorMem: Sending data request for addr (pa: 0)
 130000: system.dinocpu.verilatorMem:  -- pkt addr: 0
 130000: system.dinocpu.verilatorMem.instPort: MEMORY RESPONSE RECIEVED
 130000: system.dinocpu.verilatorMem: Got response for addr 0x204
 130000: system.dinocpu.verilatorMem.dataPort: MEMORY RESPONSE RECIEVED
 130000: system.dinocpu.verilatorMem: Got response for addr 0
 131000: system.dinocpu: 
TICKING
 131000: system.dinocpu: INSTRUCTION FETCH?
 131000: system.dinocpu.verilatorMem: Sending fetch for addr (pa: 0x208)
[...]
5371000: system.dinocpu.verilatorMem.instPort: MEMORY RESPONSE RECIEVED
5371000: system.dinocpu.verilatorMem: Got response for addr 0x53e8
5371000: system.dinocpu.verilatorMem.dataPort: MEMORY RESPONSE RECIEVED
5371000: system.dinocpu.verilatorMem: Got response for addr 0
5372000: system.dinocpu: 
TICKING
5372000: system.dinocpu: INSTRUCTION FETCH?
5372000: system.dinocpu.verilatorMem: Sending fetch for addr (pa: 0x53ec)
5372000: system.dinocpu.verilatorMem:  -- pkt addr: 0x53ec
5372000: system.dinocpu.verilatorMem: Sending data request for addr (pa: 0)
5372000: system.dinocpu.verilatorMem:  -- pkt addr: 0
5372000: system.dinocpu.verilatorMem.instPort: MEMORY RESPONSE RECIEVED
5372000: system.dinocpu.verilatorMem: Got response for addr 0x53ec
5372000: system.dinocpu.verilatorMem.dataPort: MEMORY RESPONSE RECIEVED
5372000: system.dinocpu.verilatorMem: Got response for addr 0
5373000: system.dinocpu: 
TICKING
5373000: system.dinocpu: INSTRUCTION FETCH?
5373000: system.dinocpu.verilatorMem: Sending fetch for addr (pa: 0x53f0)
5373000: system.dinocpu.verilatorMem:  -- pkt addr: 0x53f0
5373000: system.dinocpu.verilatorMem: Sending data request for addr (pa: 0)
5373000: system.dinocpu.verilatorMem:  -- pkt addr: 0
5373000: system.dinocpu.verilatorMem.instPort: MEMORY RESPONSE RECIEVED
5373000: system.dinocpu.verilatorMem: Got response for addr 0x53f0
5373000: system.dinocpu.verilatorMem.dataPort: MEMORY RESPONSE RECIEVED
5373000: system.dinocpu.verilatorMem: Got response for addr 0
5374000: system.dinocpu: 
TICKING
5374000: system.dinocpu: INSTRUCTION FETCH?
5374000: system.dinocpu.verilatorMem: Sending fetch for addr (pa: 0x53f4)
5374000: system.dinocpu.verilatorMem:  -- pkt addr: 0x53f4
5374000: system.dinocpu.verilatorMem: Sending data request for addr (pa: 0)
5374000: system.dinocpu.verilatorMem:  -- pkt addr: 0
5374000: system.dinocpu.verilatorMem.instPort: MEMORY RESPONSE RECIEVED
5374000: system.dinocpu.verilatorMem: Got response for addr 0x53f4
5374000: system.dinocpu.verilatorMem.dataPort: MEMORY RESPONSE RECIEVED
5374000: system.dinocpu.verilatorMem: Got response for addr 0
5375000: system.dinocpu: 
TICKING
5375000: system.dinocpu: INSTRUCTION FETCH?
5375000: system.dinocpu.verilatorMem: Sending fetch for addr (pa: 0x53f8)
5375000: system.dinocpu.verilatorMem:  -- pkt addr: 0x53f8
5375000: system.dinocpu.verilatorMem: Sending data request for addr (pa: 0)
5375000: system.dinocpu.verilatorMem:  -- pkt addr: 0
5375000: system.dinocpu.verilatorMem.instPort: MEMORY RESPONSE RECIEVED
5375000: system.dinocpu.verilatorMem: Got response for addr 0x53f8
5375000: system.dinocpu.verilatorMem.dataPort: MEMORY RESPONSE RECIEVED
5375000: system.dinocpu.verilatorMem: Got response for addr 0
5376000: system.dinocpu: 
TICKING
5376000: system.dinocpu: INSTRUCTION FETCH?
5376000: system.dinocpu.verilatorMem: Sending fetch for addr (pa: 0x53fc)
5376000: system.dinocpu.verilatorMem:  -- pkt addr: 0x53fc
5376000: system.dinocpu.verilatorMem: Sending data request for addr (pa: 0)
5376000: system.dinocpu.verilatorMem:  -- pkt addr: 0
5376000: system.dinocpu.verilatorMem.instPort: MEMORY RESPONSE RECIEVED
5376000: system.dinocpu.verilatorMem: Got response for addr 0x53fc
5376000: system.dinocpu.verilatorMem.dataPort: MEMORY RESPONSE RECIEVED
5376000: system.dinocpu.verilatorMem: Got response for addr 0
5377000: system.dinocpu: 
TICKING
5377000: system.dinocpu: INSTRUCTION FETCH?
5377000: system.dinocpu.verilatorMem: Sending fetch for addr (pa: 0x5400)
5377000: system.dinocpu.verilatorMem:  -- pkt addr: 0x5400
5377000: system.dinocpu.verilatorMem: Sending data request for addr (pa: 0)
5377000: system.dinocpu.verilatorMem:  -- pkt addr: 0
5377000: system.dinocpu.verilatorMem.instPort: MEMORY RESPONSE RECIEVED
5377000: system.dinocpu.verilatorMem: Got response for addr 0x5400
5377000: system.dinocpu.verilatorMem.dataPort: MEMORY RESPONSE RECIEVED
5377000: system.dinocpu.verilatorMem: Got response for addr 0
5378000: system.dinocpu: 
TICKING
5378000: system.dinocpu: INSTRUCTION FETCH?
5378000: system.dinocpu.verilatorMem: Sending fetch for addr (pa: 0x5404)
5378000: system.dinocpu.verilatorMem:  -- pkt addr: 0x5404
5378000: system.dinocpu.verilatorMem: Sending data request for addr (pa: 0)
5378000: system.dinocpu.verilatorMem:  -- pkt addr: 0
5378000: system.dinocpu.verilatorMem.instPort: MEMORY RESPONSE RECIEVED
5378000: system.dinocpu.verilatorMem: Got response for addr 0x5404
5378000: system.dinocpu.verilatorMem.dataPort: MEMORY RESPONSE RECIEVED
5378000: system.dinocpu.verilatorMem: Got response for addr 0
5379000: system.dinocpu: 
TICKING
5379000: system.dinocpu: INSTRUCTION FETCH?
5379000: system.dinocpu.verilatorMem: Sending fetch for addr (pa: 0x5408)
5379000: system.dinocpu.verilatorMem:  -- pkt addr: 0x5408
5379000: system.dinocpu.verilatorMem: Sending data request for addr (pa: 0)
5379000: system.dinocpu.verilatorMem:  -- pkt addr: 0
5379000: system.dinocpu.verilatorMem.instPort: MEMORY RESPONSE RECIEVED
5379000: system.dinocpu.verilatorMem: Got response for addr 0x5408
5379000: system.dinocpu.verilatorMem.dataPort: MEMORY RESPONSE RECIEVED
5379000: system.dinocpu.verilatorMem: Got response for addr 0
5380000: system.dinocpu: 
TICKING
5380000: system.dinocpu: INSTRUCTION FETCH?
5380000: system.dinocpu.verilatorMem: Sending fetch for addr (pa: 0x540c)
5380000: system.dinocpu.verilatorMem:  -- pkt addr: 0x540c
5380000: system.dinocpu.verilatorMem: Sending data request for addr (pa: 0)
5380000: system.dinocpu.verilatorMem:  -- pkt addr: 0
5380000: system.dinocpu.verilatorMem.instPort: MEMORY RESPONSE RECIEVED
5380000: system.dinocpu.verilatorMem: Got response for addr 0x540c
5380000: system.dinocpu.verilatorMem.dataPort: MEMORY RESPONSE RECIEVED
5380000: system.dinocpu.verilatorMem: Got response for addr 0
5381000: system.dinocpu: 
TICKING
5381000: system.dinocpu: INSTRUCTION FETCH?
5381000: system.dinocpu.verilatorMem: Sending fetch for addr (pa: 0x5410)
5381000: system.dinocpu.verilatorMem:  -- pkt addr: 0x5410
5381000: system.dinocpu.verilatorMem: Sending data request for addr (pa: 0)
5381000: system.dinocpu.verilatorMem:  -- pkt addr: 0
5381000: system.dinocpu.verilatorMem.instPort: MEMORY RESPONSE RECIEVED
5381000: system.dinocpu.verilatorMem: Got response for addr 0x5410
5381000: system.dinocpu.verilatorMem.dataPort: MEMORY RESPONSE RECIEVED
5381000: system.dinocpu.verilatorMem: Got response for addr 0
5382000: system.dinocpu: 
TICKING
5382000: system.dinocpu: INSTRUCTION FETCH?
5382000: system.dinocpu.verilatorMem: Sending fetch for addr (pa: 0x5414)
5382000: system.dinocpu.verilatorMem:  -- pkt addr: 0x5414
5382000: system.dinocpu.verilatorMem: Sending data request for addr (pa: 0)
5382000: system.dinocpu.verilatorMem:  -- pkt addr: 0
5382000: system.dinocpu.verilatorMem.instPort: MEMORY RESPONSE RECIEVED
5382000: system.dinocpu.verilatorMem: Got response for addr 0x5414
5382000: system.dinocpu.verilatorMem.dataPort: MEMORY RESPONSE RECIEVED
5382000: system.dinocpu.verilatorMem: Got response for addr 0
5383000: system.dinocpu: 
TICKING
5383000: system.dinocpu: INSTRUCTION FETCH?
5383000: system.dinocpu.verilatorMem: Sending fetch for addr (pa: 0x5418)
5383000: system.dinocpu.verilatorMem:  -- pkt addr: 0x5418
5383000: system.dinocpu.verilatorMem: Sending data request for addr (pa: 0)
5383000: system.dinocpu.verilatorMem:  -- pkt addr: 0
5383000: system.dinocpu.verilatorMem.instPort: MEMORY RESPONSE RECIEVED
5383000: system.dinocpu.verilatorMem: Got response for addr 0x5418
5383000: system.dinocpu.verilatorMem.dataPort: MEMORY RESPONSE RECIEVED
5383000: system.dinocpu.verilatorMem: Got response for addr 0
5384000: system.dinocpu: 
TICKING
5384000: system.dinocpu: INSTRUCTION FETCH?
5384000: system.dinocpu.verilatorMem: Sending fetch for addr (pa: 0x541c)
5384000: system.dinocpu.verilatorMem:  -- pkt addr: 0x541c
5384000: system.dinocpu.verilatorMem: Sending data request for addr (pa: 0)
5384000: system.dinocpu.verilatorMem:  -- pkt addr: 0
5384000: system.dinocpu.verilatorMem.instPort: MEMORY RESPONSE RECIEVED
5384000: system.dinocpu.verilatorMem: Got response for addr 0x541c
5384000: system.dinocpu.verilatorMem.dataPort: MEMORY RESPONSE RECIEVED
5384000: system.dinocpu.verilatorMem: Got response for addr 0
5385000: system.dinocpu: 
TICKING
5385000: system.dinocpu: INSTRUCTION FETCH?
5385000: system.dinocpu.verilatorMem: Sending fetch for addr (pa: 0x5420)
5385000: system.dinocpu.verilatorMem:  -- pkt addr: 0x5420
5385000: system.dinocpu.verilatorMem: Sending data request for addr (pa: 0)
5385000: system.dinocpu.verilatorMem:  -- pkt addr: 0
5385000: system.dinocpu.verilatorMem.instPort: MEMORY RESPONSE RECIEVED
5385000: system.dinocpu.verilatorMem: Got response for addr 0x5420
5385000: system.dinocpu.verilatorMem.dataPort: MEMORY RESPONSE RECIEVED
5385000: system.dinocpu.verilatorMem: Got response for addr 0
5386000: system.dinocpu: 
TICKING
5386000: system.dinocpu: INSTRUCTION FETCH?
5386000: system.dinocpu.verilatorMem: Sending fetch for addr (pa: 0x5424)
5386000: system.dinocpu.verilatorMem:  -- pkt addr: 0x5424
5386000: system.dinocpu.verilatorMem: Sending data request for addr (pa: 0)
5386000: system.dinocpu.verilatorMem:  -- pkt addr: 0
5386000: system.dinocpu.verilatorMem.instPort: MEMORY RESPONSE RECIEVED
5386000: system.dinocpu.verilatorMem: Got response for addr 0x5424
5386000: system.dinocpu.verilatorMem.dataPort: MEMORY RESPONSE RECIEVED
5386000: system.dinocpu.verilatorMem: Got response for addr 0
5387000: system.dinocpu: 
TICKING
5387000: system.dinocpu: INSTRUCTION FETCH?
5387000: system.dinocpu.verilatorMem: Sending fetch for addr (pa: 0x5428)
5387000: system.dinocpu.verilatorMem:  -- pkt addr: 0x5428
5387000: system.dinocpu.verilatorMem: Sending data request for addr (pa: 0)
5387000: system.dinocpu.verilatorMem:  -- pkt addr: 0
5387000: system.dinocpu.verilatorMem.instPort: MEMORY RESPONSE RECIEVED
5387000: system.dinocpu.verilatorMem: Got response for addr 0x5428
5387000: system.dinocpu.verilatorMem.dataPort: MEMORY RESPONSE RECIEVED
5387000: system.dinocpu.verilatorMem: Got response for addr 0
5388000: system.dinocpu: 
TICKING
5388000: system.dinocpu: INSTRUCTION FETCH?
5388000: system.dinocpu.verilatorMem: Sending fetch for addr (pa: 0x542c)
5388000: system.dinocpu.verilatorMem:  -- pkt addr: 0x542c
5388000: system.dinocpu.verilatorMem: Sending data request for addr (pa: 0)
5388000: system.dinocpu.verilatorMem:  -- pkt addr: 0
5388000: system.dinocpu.verilatorMem.instPort: MEMORY RESPONSE RECIEVED
5388000: system.dinocpu.verilatorMem: Got response for addr 0x542c
5388000: system.dinocpu.verilatorMem.dataPort: MEMORY RESPONSE RECIEVED
5388000: system.dinocpu.verilatorMem: Got response for addr 0
5389000: system.dinocpu: 
TICKING
5389000: system.dinocpu: INSTRUCTION FETCH?
5389000: system.dinocpu.verilatorMem: Sending fetch for addr (pa: 0x5430)
5389000: system.dinocpu.verilatorMem:  -- pkt addr: 0x5430
5389000: system.dinocpu.verilatorMem: Sending data request for addr (pa: 0)
5389000: system.dinocpu.verilatorMem:  -- pkt addr: 0
5389000: system.dinocpu.verilatorMem.instPort: MEMORY RESPONSE RECIEVED
5389000: system.dinocpu.verilatorMem: Got response for addr 0x5430
5389000: system.dinocpu.verilatorMem.dataPort: MEMORY RESPONSE RECIEVED
5389000: system.dinocpu.verilatorMem: Got response for addr 0
5390000: system.dinocpu: 
TICKING
5390000: system.dinocpu: INSTRUCTION FETCH?
5390000: system.dinocpu.verilatorMem: Sending fetch for addr (pa: 0x5434)
5390000: system.dinocpu.verilatorMem:  -- pkt addr: 0x5434
5390000: system.dinocpu.verilatorMem: Sending data request for addr (pa: 0)
5390000: system.dinocpu.verilatorMem:  -- pkt addr: 0
5390000: system.dinocpu.verilatorMem.instPort: MEMORY RESPONSE RECIEVED
5390000: system.dinocpu.verilatorMem: Got response for addr 0x5434
5390000: system.dinocpu.verilatorMem.dataPort: MEMORY RESPONSE RECIEVED
5390000: system.dinocpu.verilatorMem: Got response for addr 0
5391000: system.dinocpu: 
TICKING
5391000: system.dinocpu: INSTRUCTION FETCH?
5391000: system.dinocpu.verilatorMem: Sending fetch for addr (pa: 0x5438)
5391000: system.dinocpu.verilatorMem:  -- pkt addr: 0x5438
5391000: system.dinocpu.verilatorMem: Sending data request for addr (pa: 0)
5391000: system.dinocpu.verilatorMem:  -- pkt addr: 0
5391000: system.dinocpu.verilatorMem.instPort: MEMORY RESPONSE RECIEVED
5391000: system.dinocpu.verilatorMem: Got response for addr 0x5438
5391000: system.dinocpu.verilatorMem.dataPort: MEMORY RESPONSE RECIEVED
5391000: system.dinocpu.verilatorMem: Got response for addr 0
5392000: system.dinocpu: 
TICKING
5392000: system.dinocpu: INSTRUCTION FETCH?
5392000: system.dinocpu.verilatorMem: Sending fetch for addr (pa: 0x543c)
5392000: system.dinocpu.verilatorMem:  -- pkt addr: 0x543c
5392000: system.dinocpu.verilatorMem: Sending data request for addr (pa: 0)
5392000: system.dinocpu.verilatorMem:  -- pkt addr: 0
5392000: system.dinocpu.verilatorMem.instPort: MEMORY RESPONSE RECIEVED
5392000: system.dinocpu.verilatorMem: Got response for addr 0x543c
5392000: system.dinocpu.verilatorMem.dataPort: MEMORY RESPONSE RECIEVED
5392000: system.dinocpu.verilatorMem: Got response for addr 0
5393000: system.dinocpu: 
TICKING
5393000: system.dinocpu: INSTRUCTION FETCH?
5393000: system.dinocpu.verilatorMem: Sending fetch for addr (pa: 0x5440)
5393000: system.dinocpu.verilatorMem:  -- pkt addr: 0x5440
5393000: system.dinocpu.verilatorMem: Sending data request for addr (pa: 0)
5393000: system.dinocpu.verilatorMem:  -- pkt addr: 0
5393000: system.dinocpu.verilatorMem.instPort: MEMORY RESPONSE RECIEVED
5393000: system.dinocpu.verilatorMem: Got response for addr 0x5440
5393000: system.dinocpu.verilatorMem.dataPort: MEMORY RESPONSE RECIEVED
5393000: system.dinocpu.verilatorMem: Got response for addr 0
5394000: system.dinocpu: 
TICKING
5394000: system.dinocpu: INSTRUCTION FETCH?
5394000: system.dinocpu.verilatorMem: Sending fetch for addr (pa: 0x5444)
5394000: system.dinocpu.verilatorMem:  -- pkt addr: 0x5444
5394000: system.dinocpu.verilatorMem: Sending data request for addr (pa: 0)
5394000: system.dinocpu.verilatorMem:  -- pkt addr: 0
5394000: system.dinocpu.verilatorMem.instPort: MEMORY RESPONSE RECIEVED
5394000: system.dinocpu.verilatorMem: Got response for addr 0x5444
5394000: system.dinocpu.verilatorMem.dataPort: MEMORY RESPONSE RECIEVED
5394000: system.dinocpu.verilatorMem: Got response for addr 0
5395000: system.dinocpu: 
TICKING
5395000: system.dinocpu: INSTRUCTION FETCH?
5395000: system.dinocpu.verilatorMem: Sending fetch for addr (pa: 0x5448)
5395000: system.dinocpu.verilatorMem:  -- pkt addr: 0x5448
5395000: system.dinocpu.verilatorMem: Sending data request for addr (pa: 0)
5395000: system.dinocpu.verilatorMem:  -- pkt addr: 0
5395000: system.dinocpu.verilatorMem.instPort: MEMORY RESPONSE RECIEVED
5395000: system.dinocpu.verilatorMem: Got response for addr 0x5448
5395000: system.dinocpu.verilatorMem.dataPort: MEMORY RESPONSE RECIEVED
5395000: system.dinocpu.verilatorMem: Got response for addr 0
5396000: system.dinocpu: 
TICKING
5396000: system.dinocpu: INSTRUCTION FETCH?
5396000: system.dinocpu.verilatorMem: Sending fetch for addr (pa: 0x544c)
5396000: system.dinocpu.verilatorMem:  -- pkt addr: 0x544c
5396000: system.dinocpu.verilatorMem: Sending data request for addr (pa: 0)
5396000: system.dinocpu.verilatorMem:  -- pkt addr: 0
5396000: system.dinocpu.verilatorMem.instPort: MEMORY RESPONSE RECIEVED
5396000: system.dinocpu.verilatorMem: Got response for addr 0x544c
5396000: system.dinocpu.verilatorMem.dataPort: MEMORY RESPONSE RECIEVED
5396000: system.dinocpu.verilatorMem: Got response for addr 0
5397000: system.dinocpu: 
TICKING
5397000: system.dinocpu: INSTRUCTION FETCH?
5397000: system.dinocpu.verilatorMem: Sending fetch for addr (pa: 0x5450)
5397000: system.dinocpu.verilatorMem:  -- pkt addr: 0x5450
5397000: system.dinocpu.verilatorMem: Sending data request for addr (pa: 0)
5397000: system.dinocpu.verilatorMem:  -- pkt addr: 0
5397000: system.dinocpu.verilatorMem.instPort: MEMORY RESPONSE RECIEVED
5397000: system.dinocpu.verilatorMem: Got response for addr 0x5450
5397000: system.dinocpu.verilatorMem.dataPort: MEMORY RESPONSE RECIEVED
5397000: system.dinocpu.verilatorMem: Got response for addr 0
5398000: system.dinocpu: 
TICKING
5398000: system.dinocpu: INSTRUCTION FETCH?
5398000: system.dinocpu.verilatorMem: Sending fetch for addr (pa: 0x5454)
5398000: system.dinocpu.verilatorMem:  -- pkt addr: 0x5454
5398000: system.dinocpu.verilatorMem: Sending data request for addr (pa: 0)
5398000: system.dinocpu.verilatorMem:  -- pkt addr: 0
5398000: system.dinocpu.verilatorMem.instPort: MEMORY RESPONSE RECIEVED
5398000: system.dinocpu.verilatorMem: Got response for addr 0x5454
5398000: system.dinocpu.verilatorMem.dataPort: MEMORY RESPONSE RECIEVED
5398000: system.dinocpu.verilatorMem: Got response for addr 0
5399000: system.dinocpu: 
TICKING
5399000: system.dinocpu: INSTRUCTION FETCH?
5399000: system.dinocpu.verilatorMem: Sending fetch for addr (pa: 0x5458)
5399000: system.dinocpu.verilatorMem:  -- pkt addr: 0x5458
5399000: system.dinocpu.verilatorMem: Sending data request for addr (pa: 0)
5399000: system.dinocpu.verilatorMem:  -- pkt addr: 0
5399000: system.dinocpu.verilatorMem.instPort: MEMORY RESPONSE RECIEVED
5399000: system.dinocpu.verilatorMem: Got response for addr 0x5458
5399000: system.dinocpu.verilatorMem.dataPort: MEMORY RESPONSE RECIEVED
5399000: system.dinocpu.verilatorMem: Got response for addr 0
5400000: system.dinocpu: 
TICKING
5400000: system.dinocpu: INSTRUCTION FETCH?
5400000: system.dinocpu.verilatorMem: Sending fetch for addr (pa: 0x545c)
5400000: system.dinocpu.verilatorMem:  -- pkt addr: 0x545c
5400000: system.dinocpu.verilatorMem: Sending data request for addr (pa: 0)
5400000: system.dinocpu.verilatorMem:  -- pkt addr: 0
5400000: system.dinocpu.verilatorMem.instPort: MEMORY RESPONSE RECIEVED
5400000: system.dinocpu.verilatorMem: Got response for addr 0x545c
5400000: system.dinocpu.verilatorMem.dataPort: MEMORY RESPONSE RECIEVED
5400000: system.dinocpu.verilatorMem: Got response for addr 0
5401000: system.dinocpu: 
TICKING
5401000: system.dinocpu: INSTRUCTION FETCH?
5401000: system.dinocpu.verilatorMem: Sending fetch for addr (pa: 0x5460)
5401000: system.dinocpu.verilatorMem:  -- pkt addr: 0x5460
5401000: system.dinocpu.verilatorMem: Sending data request for addr (pa: 0)
5401000: system.dinocpu.verilatorMem:  -- pkt addr: 0
5401000: system.dinocpu.verilatorMem.instPort: MEMORY RESPONSE RECIEVED
5401000: system.dinocpu.verilatorMem: Got response for addr 0x5460
5401000: system.dinocpu.verilatorMem.dataPort: MEMORY RESPONSE RECIEVED
5401000: system.dinocpu.verilatorMem: Got response for addr 0
5402000: system.dinocpu: 
TICKING
5402000: system.dinocpu: INSTRUCTION FETCH?
5402000: system.dinocpu.verilatorMem: Sending fetch for addr (pa: 0x5464)
5402000: system.dinocpu.verilatorMem:  -- pkt addr: 0x5464
5402000: system.dinocpu.verilatorMem: Sending data request for addr (pa: 0)
5402000: system.dinocpu.verilatorMem:  -- pkt addr: 0
5402000: system.dinocpu.verilatorMem.instPort: MEMORY RESPONSE RECIEVED
5402000: system.dinocpu.verilatorMem: Got response for addr 0x5464
5402000: system.dinocpu.verilatorMem.dataPort: MEMORY RESPONSE RECIEVED
5402000: system.dinocpu.verilatorMem: Got response for addr 0
5403000: system.dinocpu: 
TICKING
5403000: system.dinocpu: INSTRUCTION FETCH?
5403000: system.dinocpu.verilatorMem: Sending fetch for addr (pa: 0x5468)
5403000: system.dinocpu.verilatorMem:  -- pkt addr: 0x5468
5403000: system.dinocpu.verilatorMem: Sending data request for addr (pa: 0)
5403000: system.dinocpu.verilatorMem:  -- pkt addr: 0
5403000: system.dinocpu.verilatorMem.instPort: MEMORY RESPONSE RECIEVED
5403000: system.dinocpu.verilatorMem: Got response for addr 0x5468
5403000: system.dinocpu.verilatorMem.dataPort: MEMORY RESPONSE RECIEVED
5403000: system.dinocpu.verilatorMem: Got response for addr 0
Exiting @ tick 5403000 because user interrupt received
