gem5 Simulator System.  https://www.gem5.org
gem5 is copyrighted software; use the --copyright option for details.

gem5 version 23.0.0.1
gem5 compiled Aug 17 2023 23:51:48
gem5 started Aug 23 2023 23:41:50
gem5 executing on azacca, pid 324788
command line: /scr/bees/pb-test-board/build/RISCV/gem5.opt --outdir=matched_board_tests_paper/microbench_2/riscv-cch-st/1_11_16/ simple-config.py --benchmark=riscv-cch-st --foldover=1 --pb_row=11 --matrix_size=16

info: Standard input is not a terminal, disabling listeners.
