Global frequency set at 1000000000000 ticks per second
gem5 Simulator System.  https://www.gem5.org
gem5 is copyrighted software; use the --copyright option for details.

gem5 version 23.0.0.1
gem5 compiled Aug 17 2023 23:51:48
gem5 started Aug 18 2023 17:22:42
gem5 executing on azacca, pid 72626
command line: /scr/bees/pb-test-board/build/RISCV/gem5.opt --outdir=matched_board_tests/riscv-bubblesort/0_15_16/5 simple-config.py --benchmark=riscv-bubblesort --foldover=0 --pb_row=15 --matrix_size=16

{'core': {'threadPolicy': 'RoundRobin', 'BP': {'BPChoice': 'Local'}, 'FUPool': {'U74IntFU': 1, 'U74IntMulFU': 9, 'U74IntDivFU': 6, 'U74MemReadFU': 6, 'U74MemWriteFU': 6}}, 'cache': {'l2_size': '2MiB', 'l2_assoc': 16, 'l1dcache-response_latency': 4, 'l2cache-data_latency': 20, 'iptw_caches-size': '4KiB', 'dptw_caches-size': '16KiB'}}
-50000
