gem5 Simulator System.  https://www.gem5.org
gem5 is copyrighted software; use the --copyright option for details.

gem5 version 23.0.0.1
gem5 compiled Aug 17 2023 23:51:48
gem5 started Aug 21 2023 21:19:02
gem5 executing on azacca, pid 189106
command line: /scr/bees/pb-test-board/build/RISCV/gem5.opt --outdir=matched_board_tests/microbench/riscv-ed1/1_10_16/ simple-config.py --benchmark=riscv-ed1 --foldover=1 --pb_row=10 --matrix_size=16
