Global frequency set at 1000000000000 ticks per second
gem5 Simulator System.  https://www.gem5.org
gem5 is copyrighted software; use the --copyright option for details.

gem5 version 23.0.0.1
gem5 compiled Aug 17 2023 23:51:48
gem5 started Aug 21 2023 21:11:26
gem5 executing on azacca, pid 186772
command line: /scr/bees/pb-test-board/build/RISCV/gem5.opt --outdir=matched_board_tests/microbench/riscv-ed1/0_0_16/ simple-config.py --benchmark=riscv-ed1 --foldover=0 --pb_row=0 --matrix_size=16

{'core': {'threadPolicy': 'RoundRobin', 'BP': {'BPChoice': 'Tournament'}, 'FUPool': {'U74IntFU': 3, 'U74IntMulFU': 9, 'U74IntDivFU': 18, 'U74MemReadFU': 6, 'U74MemWriteFU': 6}}, 'cache': {'l2_size': '16MiB', 'l2_assoc': 64, 'l1dcache-response_latency': 4, 'l2cache-data_latency': 20, 'iptw_caches-size': '16KiB', 'dptw_caches-size': '16KiB'}}
info: Using default config
