gem5 Simulator System.  http://gem5.org
gem5 is copyrighted software; use the --copyright option for details.


Global frequency set at 1000000000000 ticks per second
-48454
-47284
-47152
-46323
-44759
-44411
-44053
-43671
-43129
-42427
-42191
-40392
-39905
-39872
-38809
-38193
-37786
-36605
-36527
-35269
-35161
-34845
-30913
-30494
-29422
-29178
-28607
-27242
-27104
-26920
-26077
-24685
-24666
-23782
-22828
-22476
-21165
-20856
-20484
-20444
-19992
-19851
-19030
-17764
-16871
-16586
-16206
-15986
-15239
-13587
-12990
-11743
-11011
-10769
-10556
-10026
-9737
-9633
-9026
-8555
-7913
-7086
-4790
-3206
-3090
-2900
-1660
-1331
-1207
-415
-411
-208
727
1248
1822
2331
2540
3699
4153
4697
4955
5354
5468
5492
5504
5710
6571
6952
7883
8574
9359
9872
10414
11485
12207
13442
13501
13909
14193
15224
