gem5 Simulator System.  http://gem5.org
gem5 is copyrighted software; use the --copyright option for details.


Global frequency set at 1000000000000 ticks per second
-6984
5732
8656
-2156
-3040
-2684
-8664
852
560
300
