gem5 Simulator System.  https://www.gem5.org
gem5 is copyrighted software; use the --copyright option for details.

gem5 version 23.0.0.1
gem5 compiled Aug 17 2023 23:51:48
gem5 started Aug 23 2023 23:40:22
gem5 executing on azacca, pid 322588
command line: /scr/bees/pb-test-board/build/RISCV/gem5.opt --outdir=matched_board_tests_paper/microbench_2/riscv-md/0_7_16/ simple-config.py --benchmark=riscv-md --foldover=0 --pb_row=7 --matrix_size=16

info: Standard input is not a terminal, disabling listeners.
