
---------- Begin Simulation Statistics ----------
simSeconds                                   0.100000                       # Number of seconds simulated (Second)
simTicks                                 100000000000                       # Number of ticks simulated (Tick)
finalTick                                366391400544800                       # Number of ticks from beginning of simulation (restored from checkpoints and never reset) (Tick)
simFreq                                  1000000000000                       # The number of ticks per simulated second ((Tick/Second))
hostSeconds                                   2685.18                       # Real time elapsed on the host (Second)
hostTickRate                                 37241504                       # The number of ticks simulated per host second (ticks/s) ((Tick/Second))
hostMemory                                    3996176                       # Number of bytes of host memory used (Byte)
simInsts                                   8472900562                       # Number of instructions simulated (Count)
simOps                                     9051715228                       # Number of ops (including micro ops) simulated (Count)
hostInstRate                                  3155435                       # Simulator instruction rate (inst/s) ((Count/Second))
hostOpRate                                    3370995                       # Simulator op (including micro ops) rate (op/s) ((Count/Second))
system.atomicCpu0.numCycles                         0                       # Number of cpu cycles simulated (Cycle)
system.atomicCpu0.numWorkItemsStarted               0                       # Number of work items this cpu started (Count)
system.atomicCpu0.numWorkItemsCompleted             0                       # Number of work items this cpu completed (Count)
system.atomicCpu0.exec_context.thread_0.numInsts            0                       # Number of instructions committed (Count)
system.atomicCpu0.exec_context.thread_0.numOps            0                       # Number of ops (including micro ops) committed (Count)
system.atomicCpu0.exec_context.thread_0.numIntAluAccesses            0                       # Number of integer alu accesses (Count)
system.atomicCpu0.exec_context.thread_0.numFpAluAccesses            0                       # Number of float alu accesses (Count)
system.atomicCpu0.exec_context.thread_0.numVecAluAccesses            0                       # Number of vector alu accesses (Count)
system.atomicCpu0.exec_context.thread_0.numCallsReturns            0                       # Number of times a function call or return occured (Count)
system.atomicCpu0.exec_context.thread_0.numCondCtrlInsts            0                       # Number of instructions that are conditional controls (Count)
system.atomicCpu0.exec_context.thread_0.numIntInsts            0                       # Number of integer instructions (Count)
system.atomicCpu0.exec_context.thread_0.numFpInsts            0                       # Number of float instructions (Count)
system.atomicCpu0.exec_context.thread_0.numVecInsts            0                       # Number of vector instructions (Count)
system.atomicCpu0.exec_context.thread_0.numIntRegReads            0                       # Number of times the integer registers were read (Count)
system.atomicCpu0.exec_context.thread_0.numIntRegWrites            0                       # Number of times the integer registers were written (Count)
system.atomicCpu0.exec_context.thread_0.numFpRegReads            0                       # Number of times the floating registers were read (Count)
system.atomicCpu0.exec_context.thread_0.numFpRegWrites            0                       # Number of times the floating registers were written (Count)
system.atomicCpu0.exec_context.thread_0.numVecRegReads            0                       # Number of times the vector registers were read (Count)
system.atomicCpu0.exec_context.thread_0.numVecRegWrites            0                       # Number of times the vector registers were written (Count)
system.atomicCpu0.exec_context.thread_0.numVecPredRegReads            0                       # Number of times the predicate registers were read (Count)
system.atomicCpu0.exec_context.thread_0.numVecPredRegWrites            0                       # Number of times the predicate registers were written (Count)
system.atomicCpu0.exec_context.thread_0.numMiscRegReads            0                       # Number of times the Misc registers were read (Count)
system.atomicCpu0.exec_context.thread_0.numMiscRegWrites            0                       # Number of times the Misc registers were written (Count)
system.atomicCpu0.exec_context.thread_0.numMemRefs            0                       # Number of memory refs (Count)
system.atomicCpu0.exec_context.thread_0.numLoadInsts            0                       # Number of load instructions (Count)
system.atomicCpu0.exec_context.thread_0.numStoreInsts            0                       # Number of store instructions (Count)
system.atomicCpu0.exec_context.thread_0.numIdleCycles            0                       # Number of idle cycles (Cycle)
system.atomicCpu0.exec_context.thread_0.numBusyCycles            0                       # Number of busy cycles (Cycle)
system.atomicCpu0.exec_context.thread_0.notIdleFraction            0                       # Percentage of non-idle cycles (Ratio)
system.atomicCpu0.exec_context.thread_0.idleFraction            1                       # Percentage of idle cycles (Ratio)
system.atomicCpu0.exec_context.thread_0.statExecutedInstType::No_OpClass            0                       # Class of executed instruction. (Count)
system.atomicCpu0.exec_context.thread_0.statExecutedInstType::IntAlu            0                       # Class of executed instruction. (Count)
system.atomicCpu0.exec_context.thread_0.statExecutedInstType::IntMult            0                       # Class of executed instruction. (Count)
system.atomicCpu0.exec_context.thread_0.statExecutedInstType::IntDiv            0                       # Class of executed instruction. (Count)
system.atomicCpu0.exec_context.thread_0.statExecutedInstType::FloatAdd            0                       # Class of executed instruction. (Count)
system.atomicCpu0.exec_context.thread_0.statExecutedInstType::FloatCmp            0                       # Class of executed instruction. (Count)
system.atomicCpu0.exec_context.thread_0.statExecutedInstType::FloatCvt            0                       # Class of executed instruction. (Count)
system.atomicCpu0.exec_context.thread_0.statExecutedInstType::FloatMult            0                       # Class of executed instruction. (Count)
system.atomicCpu0.exec_context.thread_0.statExecutedInstType::FloatMultAcc            0                       # Class of executed instruction. (Count)
system.atomicCpu0.exec_context.thread_0.statExecutedInstType::FloatDiv            0                       # Class of executed instruction. (Count)
system.atomicCpu0.exec_context.thread_0.statExecutedInstType::FloatMisc            0                       # Class of executed instruction. (Count)
system.atomicCpu0.exec_context.thread_0.statExecutedInstType::FloatSqrt            0                       # Class of executed instruction. (Count)
system.atomicCpu0.exec_context.thread_0.statExecutedInstType::SimdAdd            0                       # Class of executed instruction. (Count)
system.atomicCpu0.exec_context.thread_0.statExecutedInstType::SimdAddAcc            0                       # Class of executed instruction. (Count)
system.atomicCpu0.exec_context.thread_0.statExecutedInstType::SimdAlu            0                       # Class of executed instruction. (Count)
system.atomicCpu0.exec_context.thread_0.statExecutedInstType::SimdCmp            0                       # Class of executed instruction. (Count)
system.atomicCpu0.exec_context.thread_0.statExecutedInstType::SimdCvt            0                       # Class of executed instruction. (Count)
system.atomicCpu0.exec_context.thread_0.statExecutedInstType::SimdMisc            0                       # Class of executed instruction. (Count)
system.atomicCpu0.exec_context.thread_0.statExecutedInstType::SimdMult            0                       # Class of executed instruction. (Count)
system.atomicCpu0.exec_context.thread_0.statExecutedInstType::SimdMultAcc            0                       # Class of executed instruction. (Count)
system.atomicCpu0.exec_context.thread_0.statExecutedInstType::SimdShift            0                       # Class of executed instruction. (Count)
system.atomicCpu0.exec_context.thread_0.statExecutedInstType::SimdShiftAcc            0                       # Class of executed instruction. (Count)
system.atomicCpu0.exec_context.thread_0.statExecutedInstType::SimdDiv            0                       # Class of executed instruction. (Count)
system.atomicCpu0.exec_context.thread_0.statExecutedInstType::SimdSqrt            0                       # Class of executed instruction. (Count)
system.atomicCpu0.exec_context.thread_0.statExecutedInstType::SimdFloatAdd            0                       # Class of executed instruction. (Count)
system.atomicCpu0.exec_context.thread_0.statExecutedInstType::SimdFloatAlu            0                       # Class of executed instruction. (Count)
system.atomicCpu0.exec_context.thread_0.statExecutedInstType::SimdFloatCmp            0                       # Class of executed instruction. (Count)
system.atomicCpu0.exec_context.thread_0.statExecutedInstType::SimdFloatCvt            0                       # Class of executed instruction. (Count)
system.atomicCpu0.exec_context.thread_0.statExecutedInstType::SimdFloatDiv            0                       # Class of executed instruction. (Count)
system.atomicCpu0.exec_context.thread_0.statExecutedInstType::SimdFloatMisc            0                       # Class of executed instruction. (Count)
system.atomicCpu0.exec_context.thread_0.statExecutedInstType::SimdFloatMult            0                       # Class of executed instruction. (Count)
system.atomicCpu0.exec_context.thread_0.statExecutedInstType::SimdFloatMultAcc            0                       # Class of executed instruction. (Count)
system.atomicCpu0.exec_context.thread_0.statExecutedInstType::SimdFloatSqrt            0                       # Class of executed instruction. (Count)
system.atomicCpu0.exec_context.thread_0.statExecutedInstType::SimdReduceAdd            0                       # Class of executed instruction. (Count)
system.atomicCpu0.exec_context.thread_0.statExecutedInstType::SimdReduceAlu            0                       # Class of executed instruction. (Count)
system.atomicCpu0.exec_context.thread_0.statExecutedInstType::SimdReduceCmp            0                       # Class of executed instruction. (Count)
system.atomicCpu0.exec_context.thread_0.statExecutedInstType::SimdFloatReduceAdd            0                       # Class of executed instruction. (Count)
system.atomicCpu0.exec_context.thread_0.statExecutedInstType::SimdFloatReduceCmp            0                       # Class of executed instruction. (Count)
system.atomicCpu0.exec_context.thread_0.statExecutedInstType::SimdAes            0                       # Class of executed instruction. (Count)
system.atomicCpu0.exec_context.thread_0.statExecutedInstType::SimdAesMix            0                       # Class of executed instruction. (Count)
system.atomicCpu0.exec_context.thread_0.statExecutedInstType::SimdSha1Hash            0                       # Class of executed instruction. (Count)
system.atomicCpu0.exec_context.thread_0.statExecutedInstType::SimdSha1Hash2            0                       # Class of executed instruction. (Count)
system.atomicCpu0.exec_context.thread_0.statExecutedInstType::SimdSha256Hash            0                       # Class of executed instruction. (Count)
system.atomicCpu0.exec_context.thread_0.statExecutedInstType::SimdSha256Hash2            0                       # Class of executed instruction. (Count)
system.atomicCpu0.exec_context.thread_0.statExecutedInstType::SimdShaSigma2            0                       # Class of executed instruction. (Count)
system.atomicCpu0.exec_context.thread_0.statExecutedInstType::SimdShaSigma3            0                       # Class of executed instruction. (Count)
system.atomicCpu0.exec_context.thread_0.statExecutedInstType::SimdPredAlu            0                       # Class of executed instruction. (Count)
system.atomicCpu0.exec_context.thread_0.statExecutedInstType::MemRead            0                       # Class of executed instruction. (Count)
system.atomicCpu0.exec_context.thread_0.statExecutedInstType::MemWrite            0                       # Class of executed instruction. (Count)
system.atomicCpu0.exec_context.thread_0.statExecutedInstType::FloatMemRead            0                       # Class of executed instruction. (Count)
system.atomicCpu0.exec_context.thread_0.statExecutedInstType::FloatMemWrite            0                       # Class of executed instruction. (Count)
system.atomicCpu0.exec_context.thread_0.statExecutedInstType::IprAccess            0                       # Class of executed instruction. (Count)
system.atomicCpu0.exec_context.thread_0.statExecutedInstType::InstPrefetch            0                       # Class of executed instruction. (Count)
system.atomicCpu0.exec_context.thread_0.statExecutedInstType::total            0                       # Class of executed instruction. (Count)
system.atomicCpu0.mmu.dtb.rdAccesses                0                       # TLB accesses on read requests (Count)
system.atomicCpu0.mmu.dtb.wrAccesses                0                       # TLB accesses on write requests (Count)
system.atomicCpu0.mmu.dtb.rdMisses                  0                       # TLB misses on read requests (Count)
system.atomicCpu0.mmu.dtb.wrMisses                  0                       # TLB misses on write requests (Count)
system.atomicCpu0.mmu.dtb.walker.power_state.pwrStateResidencyTicks::UNDEFINED 366391400544800                       # Cumulative time (in ticks) in various power states (Tick)
system.atomicCpu0.mmu.itb.rdAccesses                0                       # TLB accesses on read requests (Count)
system.atomicCpu0.mmu.itb.wrAccesses                0                       # TLB accesses on write requests (Count)
system.atomicCpu0.mmu.itb.rdMisses                  0                       # TLB misses on read requests (Count)
system.atomicCpu0.mmu.itb.wrMisses                  0                       # TLB misses on write requests (Count)
system.atomicCpu0.mmu.itb.walker.power_state.pwrStateResidencyTicks::UNDEFINED 366391400544800                       # Cumulative time (in ticks) in various power states (Tick)
system.atomicCpu0.power_state.pwrStateResidencyTicks::OFF 366391400544800                       # Cumulative time (in ticks) in various power states (Tick)
system.atomicCpu0.thread_0.numInsts                 0                       # Number of Instructions committed (Count)
system.atomicCpu0.thread_0.numOps                   0                       # Number of Ops committed (Count)
system.atomicCpu0.thread_0.numMemRefs               0                       # Number of Memory References (Count)
system.atomicCpu1.numCycles                         0                       # Number of cpu cycles simulated (Cycle)
system.atomicCpu1.numWorkItemsStarted               0                       # Number of work items this cpu started (Count)
system.atomicCpu1.numWorkItemsCompleted             0                       # Number of work items this cpu completed (Count)
system.atomicCpu1.exec_context.thread_0.numInsts            0                       # Number of instructions committed (Count)
system.atomicCpu1.exec_context.thread_0.numOps            0                       # Number of ops (including micro ops) committed (Count)
system.atomicCpu1.exec_context.thread_0.numIntAluAccesses            0                       # Number of integer alu accesses (Count)
system.atomicCpu1.exec_context.thread_0.numFpAluAccesses            0                       # Number of float alu accesses (Count)
system.atomicCpu1.exec_context.thread_0.numVecAluAccesses            0                       # Number of vector alu accesses (Count)
system.atomicCpu1.exec_context.thread_0.numCallsReturns            0                       # Number of times a function call or return occured (Count)
system.atomicCpu1.exec_context.thread_0.numCondCtrlInsts            0                       # Number of instructions that are conditional controls (Count)
system.atomicCpu1.exec_context.thread_0.numIntInsts            0                       # Number of integer instructions (Count)
system.atomicCpu1.exec_context.thread_0.numFpInsts            0                       # Number of float instructions (Count)
system.atomicCpu1.exec_context.thread_0.numVecInsts            0                       # Number of vector instructions (Count)
system.atomicCpu1.exec_context.thread_0.numIntRegReads            0                       # Number of times the integer registers were read (Count)
system.atomicCpu1.exec_context.thread_0.numIntRegWrites            0                       # Number of times the integer registers were written (Count)
system.atomicCpu1.exec_context.thread_0.numFpRegReads            0                       # Number of times the floating registers were read (Count)
system.atomicCpu1.exec_context.thread_0.numFpRegWrites            0                       # Number of times the floating registers were written (Count)
system.atomicCpu1.exec_context.thread_0.numVecRegReads            0                       # Number of times the vector registers were read (Count)
system.atomicCpu1.exec_context.thread_0.numVecRegWrites            0                       # Number of times the vector registers were written (Count)
system.atomicCpu1.exec_context.thread_0.numVecPredRegReads            0                       # Number of times the predicate registers were read (Count)
system.atomicCpu1.exec_context.thread_0.numVecPredRegWrites            0                       # Number of times the predicate registers were written (Count)
system.atomicCpu1.exec_context.thread_0.numMiscRegReads            0                       # Number of times the Misc registers were read (Count)
system.atomicCpu1.exec_context.thread_0.numMiscRegWrites            0                       # Number of times the Misc registers were written (Count)
system.atomicCpu1.exec_context.thread_0.numMemRefs            0                       # Number of memory refs (Count)
system.atomicCpu1.exec_context.thread_0.numLoadInsts            0                       # Number of load instructions (Count)
system.atomicCpu1.exec_context.thread_0.numStoreInsts            0                       # Number of store instructions (Count)
system.atomicCpu1.exec_context.thread_0.numIdleCycles            0                       # Number of idle cycles (Cycle)
system.atomicCpu1.exec_context.thread_0.numBusyCycles            0                       # Number of busy cycles (Cycle)
system.atomicCpu1.exec_context.thread_0.notIdleFraction            0                       # Percentage of non-idle cycles (Ratio)
system.atomicCpu1.exec_context.thread_0.idleFraction            1                       # Percentage of idle cycles (Ratio)
system.atomicCpu1.exec_context.thread_0.statExecutedInstType::No_OpClass            0                       # Class of executed instruction. (Count)
system.atomicCpu1.exec_context.thread_0.statExecutedInstType::IntAlu            0                       # Class of executed instruction. (Count)
system.atomicCpu1.exec_context.thread_0.statExecutedInstType::IntMult            0                       # Class of executed instruction. (Count)
system.atomicCpu1.exec_context.thread_0.statExecutedInstType::IntDiv            0                       # Class of executed instruction. (Count)
system.atomicCpu1.exec_context.thread_0.statExecutedInstType::FloatAdd            0                       # Class of executed instruction. (Count)
system.atomicCpu1.exec_context.thread_0.statExecutedInstType::FloatCmp            0                       # Class of executed instruction. (Count)
system.atomicCpu1.exec_context.thread_0.statExecutedInstType::FloatCvt            0                       # Class of executed instruction. (Count)
system.atomicCpu1.exec_context.thread_0.statExecutedInstType::FloatMult            0                       # Class of executed instruction. (Count)
system.atomicCpu1.exec_context.thread_0.statExecutedInstType::FloatMultAcc            0                       # Class of executed instruction. (Count)
system.atomicCpu1.exec_context.thread_0.statExecutedInstType::FloatDiv            0                       # Class of executed instruction. (Count)
system.atomicCpu1.exec_context.thread_0.statExecutedInstType::FloatMisc            0                       # Class of executed instruction. (Count)
system.atomicCpu1.exec_context.thread_0.statExecutedInstType::FloatSqrt            0                       # Class of executed instruction. (Count)
system.atomicCpu1.exec_context.thread_0.statExecutedInstType::SimdAdd            0                       # Class of executed instruction. (Count)
system.atomicCpu1.exec_context.thread_0.statExecutedInstType::SimdAddAcc            0                       # Class of executed instruction. (Count)
system.atomicCpu1.exec_context.thread_0.statExecutedInstType::SimdAlu            0                       # Class of executed instruction. (Count)
system.atomicCpu1.exec_context.thread_0.statExecutedInstType::SimdCmp            0                       # Class of executed instruction. (Count)
system.atomicCpu1.exec_context.thread_0.statExecutedInstType::SimdCvt            0                       # Class of executed instruction. (Count)
system.atomicCpu1.exec_context.thread_0.statExecutedInstType::SimdMisc            0                       # Class of executed instruction. (Count)
system.atomicCpu1.exec_context.thread_0.statExecutedInstType::SimdMult            0                       # Class of executed instruction. (Count)
system.atomicCpu1.exec_context.thread_0.statExecutedInstType::SimdMultAcc            0                       # Class of executed instruction. (Count)
system.atomicCpu1.exec_context.thread_0.statExecutedInstType::SimdShift            0                       # Class of executed instruction. (Count)
system.atomicCpu1.exec_context.thread_0.statExecutedInstType::SimdShiftAcc            0                       # Class of executed instruction. (Count)
system.atomicCpu1.exec_context.thread_0.statExecutedInstType::SimdDiv            0                       # Class of executed instruction. (Count)
system.atomicCpu1.exec_context.thread_0.statExecutedInstType::SimdSqrt            0                       # Class of executed instruction. (Count)
system.atomicCpu1.exec_context.thread_0.statExecutedInstType::SimdFloatAdd            0                       # Class of executed instruction. (Count)
system.atomicCpu1.exec_context.thread_0.statExecutedInstType::SimdFloatAlu            0                       # Class of executed instruction. (Count)
system.atomicCpu1.exec_context.thread_0.statExecutedInstType::SimdFloatCmp            0                       # Class of executed instruction. (Count)
system.atomicCpu1.exec_context.thread_0.statExecutedInstType::SimdFloatCvt            0                       # Class of executed instruction. (Count)
system.atomicCpu1.exec_context.thread_0.statExecutedInstType::SimdFloatDiv            0                       # Class of executed instruction. (Count)
system.atomicCpu1.exec_context.thread_0.statExecutedInstType::SimdFloatMisc            0                       # Class of executed instruction. (Count)
system.atomicCpu1.exec_context.thread_0.statExecutedInstType::SimdFloatMult            0                       # Class of executed instruction. (Count)
system.atomicCpu1.exec_context.thread_0.statExecutedInstType::SimdFloatMultAcc            0                       # Class of executed instruction. (Count)
system.atomicCpu1.exec_context.thread_0.statExecutedInstType::SimdFloatSqrt            0                       # Class of executed instruction. (Count)
system.atomicCpu1.exec_context.thread_0.statExecutedInstType::SimdReduceAdd            0                       # Class of executed instruction. (Count)
system.atomicCpu1.exec_context.thread_0.statExecutedInstType::SimdReduceAlu            0                       # Class of executed instruction. (Count)
system.atomicCpu1.exec_context.thread_0.statExecutedInstType::SimdReduceCmp            0                       # Class of executed instruction. (Count)
system.atomicCpu1.exec_context.thread_0.statExecutedInstType::SimdFloatReduceAdd            0                       # Class of executed instruction. (Count)
system.atomicCpu1.exec_context.thread_0.statExecutedInstType::SimdFloatReduceCmp            0                       # Class of executed instruction. (Count)
system.atomicCpu1.exec_context.thread_0.statExecutedInstType::SimdAes            0                       # Class of executed instruction. (Count)
system.atomicCpu1.exec_context.thread_0.statExecutedInstType::SimdAesMix            0                       # Class of executed instruction. (Count)
system.atomicCpu1.exec_context.thread_0.statExecutedInstType::SimdSha1Hash            0                       # Class of executed instruction. (Count)
system.atomicCpu1.exec_context.thread_0.statExecutedInstType::SimdSha1Hash2            0                       # Class of executed instruction. (Count)
system.atomicCpu1.exec_context.thread_0.statExecutedInstType::SimdSha256Hash            0                       # Class of executed instruction. (Count)
system.atomicCpu1.exec_context.thread_0.statExecutedInstType::SimdSha256Hash2            0                       # Class of executed instruction. (Count)
system.atomicCpu1.exec_context.thread_0.statExecutedInstType::SimdShaSigma2            0                       # Class of executed instruction. (Count)
system.atomicCpu1.exec_context.thread_0.statExecutedInstType::SimdShaSigma3            0                       # Class of executed instruction. (Count)
system.atomicCpu1.exec_context.thread_0.statExecutedInstType::SimdPredAlu            0                       # Class of executed instruction. (Count)
system.atomicCpu1.exec_context.thread_0.statExecutedInstType::MemRead            0                       # Class of executed instruction. (Count)
system.atomicCpu1.exec_context.thread_0.statExecutedInstType::MemWrite            0                       # Class of executed instruction. (Count)
system.atomicCpu1.exec_context.thread_0.statExecutedInstType::FloatMemRead            0                       # Class of executed instruction. (Count)
system.atomicCpu1.exec_context.thread_0.statExecutedInstType::FloatMemWrite            0                       # Class of executed instruction. (Count)
system.atomicCpu1.exec_context.thread_0.statExecutedInstType::IprAccess            0                       # Class of executed instruction. (Count)
system.atomicCpu1.exec_context.thread_0.statExecutedInstType::InstPrefetch            0                       # Class of executed instruction. (Count)
system.atomicCpu1.exec_context.thread_0.statExecutedInstType::total            0                       # Class of executed instruction. (Count)
system.atomicCpu1.mmu.dtb.rdAccesses                0                       # TLB accesses on read requests (Count)
system.atomicCpu1.mmu.dtb.wrAccesses                0                       # TLB accesses on write requests (Count)
system.atomicCpu1.mmu.dtb.rdMisses                  0                       # TLB misses on read requests (Count)
system.atomicCpu1.mmu.dtb.wrMisses                  0                       # TLB misses on write requests (Count)
system.atomicCpu1.mmu.dtb.walker.power_state.pwrStateResidencyTicks::UNDEFINED 366391400544800                       # Cumulative time (in ticks) in various power states (Tick)
system.atomicCpu1.mmu.itb.rdAccesses                0                       # TLB accesses on read requests (Count)
system.atomicCpu1.mmu.itb.wrAccesses                0                       # TLB accesses on write requests (Count)
system.atomicCpu1.mmu.itb.rdMisses                  0                       # TLB misses on read requests (Count)
system.atomicCpu1.mmu.itb.wrMisses                  0                       # TLB misses on write requests (Count)
system.atomicCpu1.mmu.itb.walker.power_state.pwrStateResidencyTicks::UNDEFINED 366391400544800                       # Cumulative time (in ticks) in various power states (Tick)
system.atomicCpu1.power_state.pwrStateResidencyTicks::OFF 366391400544800                       # Cumulative time (in ticks) in various power states (Tick)
system.atomicCpu1.thread_0.numInsts                 0                       # Number of Instructions committed (Count)
system.atomicCpu1.thread_0.numOps                   0                       # Number of Ops committed (Count)
system.atomicCpu1.thread_0.numMemRefs               0                       # Number of Memory References (Count)
system.atomicCpu2.numCycles                         0                       # Number of cpu cycles simulated (Cycle)
system.atomicCpu2.numWorkItemsStarted               0                       # Number of work items this cpu started (Count)
system.atomicCpu2.numWorkItemsCompleted             0                       # Number of work items this cpu completed (Count)
system.atomicCpu2.exec_context.thread_0.numInsts            0                       # Number of instructions committed (Count)
system.atomicCpu2.exec_context.thread_0.numOps            0                       # Number of ops (including micro ops) committed (Count)
system.atomicCpu2.exec_context.thread_0.numIntAluAccesses            0                       # Number of integer alu accesses (Count)
system.atomicCpu2.exec_context.thread_0.numFpAluAccesses            0                       # Number of float alu accesses (Count)
system.atomicCpu2.exec_context.thread_0.numVecAluAccesses            0                       # Number of vector alu accesses (Count)
system.atomicCpu2.exec_context.thread_0.numCallsReturns            0                       # Number of times a function call or return occured (Count)
system.atomicCpu2.exec_context.thread_0.numCondCtrlInsts            0                       # Number of instructions that are conditional controls (Count)
system.atomicCpu2.exec_context.thread_0.numIntInsts            0                       # Number of integer instructions (Count)
system.atomicCpu2.exec_context.thread_0.numFpInsts            0                       # Number of float instructions (Count)
system.atomicCpu2.exec_context.thread_0.numVecInsts            0                       # Number of vector instructions (Count)
system.atomicCpu2.exec_context.thread_0.numIntRegReads            0                       # Number of times the integer registers were read (Count)
system.atomicCpu2.exec_context.thread_0.numIntRegWrites            0                       # Number of times the integer registers were written (Count)
system.atomicCpu2.exec_context.thread_0.numFpRegReads            0                       # Number of times the floating registers were read (Count)
system.atomicCpu2.exec_context.thread_0.numFpRegWrites            0                       # Number of times the floating registers were written (Count)
system.atomicCpu2.exec_context.thread_0.numVecRegReads            0                       # Number of times the vector registers were read (Count)
system.atomicCpu2.exec_context.thread_0.numVecRegWrites            0                       # Number of times the vector registers were written (Count)
system.atomicCpu2.exec_context.thread_0.numVecPredRegReads            0                       # Number of times the predicate registers were read (Count)
system.atomicCpu2.exec_context.thread_0.numVecPredRegWrites            0                       # Number of times the predicate registers were written (Count)
system.atomicCpu2.exec_context.thread_0.numMiscRegReads            0                       # Number of times the Misc registers were read (Count)
system.atomicCpu2.exec_context.thread_0.numMiscRegWrites            0                       # Number of times the Misc registers were written (Count)
system.atomicCpu2.exec_context.thread_0.numMemRefs            0                       # Number of memory refs (Count)
system.atomicCpu2.exec_context.thread_0.numLoadInsts            0                       # Number of load instructions (Count)
system.atomicCpu2.exec_context.thread_0.numStoreInsts            0                       # Number of store instructions (Count)
system.atomicCpu2.exec_context.thread_0.numIdleCycles            0                       # Number of idle cycles (Cycle)
system.atomicCpu2.exec_context.thread_0.numBusyCycles            0                       # Number of busy cycles (Cycle)
system.atomicCpu2.exec_context.thread_0.notIdleFraction            0                       # Percentage of non-idle cycles (Ratio)
system.atomicCpu2.exec_context.thread_0.idleFraction            1                       # Percentage of idle cycles (Ratio)
system.atomicCpu2.exec_context.thread_0.statExecutedInstType::No_OpClass            0                       # Class of executed instruction. (Count)
system.atomicCpu2.exec_context.thread_0.statExecutedInstType::IntAlu            0                       # Class of executed instruction. (Count)
system.atomicCpu2.exec_context.thread_0.statExecutedInstType::IntMult            0                       # Class of executed instruction. (Count)
system.atomicCpu2.exec_context.thread_0.statExecutedInstType::IntDiv            0                       # Class of executed instruction. (Count)
system.atomicCpu2.exec_context.thread_0.statExecutedInstType::FloatAdd            0                       # Class of executed instruction. (Count)
system.atomicCpu2.exec_context.thread_0.statExecutedInstType::FloatCmp            0                       # Class of executed instruction. (Count)
system.atomicCpu2.exec_context.thread_0.statExecutedInstType::FloatCvt            0                       # Class of executed instruction. (Count)
system.atomicCpu2.exec_context.thread_0.statExecutedInstType::FloatMult            0                       # Class of executed instruction. (Count)
system.atomicCpu2.exec_context.thread_0.statExecutedInstType::FloatMultAcc            0                       # Class of executed instruction. (Count)
system.atomicCpu2.exec_context.thread_0.statExecutedInstType::FloatDiv            0                       # Class of executed instruction. (Count)
system.atomicCpu2.exec_context.thread_0.statExecutedInstType::FloatMisc            0                       # Class of executed instruction. (Count)
system.atomicCpu2.exec_context.thread_0.statExecutedInstType::FloatSqrt            0                       # Class of executed instruction. (Count)
system.atomicCpu2.exec_context.thread_0.statExecutedInstType::SimdAdd            0                       # Class of executed instruction. (Count)
system.atomicCpu2.exec_context.thread_0.statExecutedInstType::SimdAddAcc            0                       # Class of executed instruction. (Count)
system.atomicCpu2.exec_context.thread_0.statExecutedInstType::SimdAlu            0                       # Class of executed instruction. (Count)
system.atomicCpu2.exec_context.thread_0.statExecutedInstType::SimdCmp            0                       # Class of executed instruction. (Count)
system.atomicCpu2.exec_context.thread_0.statExecutedInstType::SimdCvt            0                       # Class of executed instruction. (Count)
system.atomicCpu2.exec_context.thread_0.statExecutedInstType::SimdMisc            0                       # Class of executed instruction. (Count)
system.atomicCpu2.exec_context.thread_0.statExecutedInstType::SimdMult            0                       # Class of executed instruction. (Count)
system.atomicCpu2.exec_context.thread_0.statExecutedInstType::SimdMultAcc            0                       # Class of executed instruction. (Count)
system.atomicCpu2.exec_context.thread_0.statExecutedInstType::SimdShift            0                       # Class of executed instruction. (Count)
system.atomicCpu2.exec_context.thread_0.statExecutedInstType::SimdShiftAcc            0                       # Class of executed instruction. (Count)
system.atomicCpu2.exec_context.thread_0.statExecutedInstType::SimdDiv            0                       # Class of executed instruction. (Count)
system.atomicCpu2.exec_context.thread_0.statExecutedInstType::SimdSqrt            0                       # Class of executed instruction. (Count)
system.atomicCpu2.exec_context.thread_0.statExecutedInstType::SimdFloatAdd            0                       # Class of executed instruction. (Count)
system.atomicCpu2.exec_context.thread_0.statExecutedInstType::SimdFloatAlu            0                       # Class of executed instruction. (Count)
system.atomicCpu2.exec_context.thread_0.statExecutedInstType::SimdFloatCmp            0                       # Class of executed instruction. (Count)
system.atomicCpu2.exec_context.thread_0.statExecutedInstType::SimdFloatCvt            0                       # Class of executed instruction. (Count)
system.atomicCpu2.exec_context.thread_0.statExecutedInstType::SimdFloatDiv            0                       # Class of executed instruction. (Count)
system.atomicCpu2.exec_context.thread_0.statExecutedInstType::SimdFloatMisc            0                       # Class of executed instruction. (Count)
system.atomicCpu2.exec_context.thread_0.statExecutedInstType::SimdFloatMult            0                       # Class of executed instruction. (Count)
system.atomicCpu2.exec_context.thread_0.statExecutedInstType::SimdFloatMultAcc            0                       # Class of executed instruction. (Count)
system.atomicCpu2.exec_context.thread_0.statExecutedInstType::SimdFloatSqrt            0                       # Class of executed instruction. (Count)
system.atomicCpu2.exec_context.thread_0.statExecutedInstType::SimdReduceAdd            0                       # Class of executed instruction. (Count)
system.atomicCpu2.exec_context.thread_0.statExecutedInstType::SimdReduceAlu            0                       # Class of executed instruction. (Count)
system.atomicCpu2.exec_context.thread_0.statExecutedInstType::SimdReduceCmp            0                       # Class of executed instruction. (Count)
system.atomicCpu2.exec_context.thread_0.statExecutedInstType::SimdFloatReduceAdd            0                       # Class of executed instruction. (Count)
system.atomicCpu2.exec_context.thread_0.statExecutedInstType::SimdFloatReduceCmp            0                       # Class of executed instruction. (Count)
system.atomicCpu2.exec_context.thread_0.statExecutedInstType::SimdAes            0                       # Class of executed instruction. (Count)
system.atomicCpu2.exec_context.thread_0.statExecutedInstType::SimdAesMix            0                       # Class of executed instruction. (Count)
system.atomicCpu2.exec_context.thread_0.statExecutedInstType::SimdSha1Hash            0                       # Class of executed instruction. (Count)
system.atomicCpu2.exec_context.thread_0.statExecutedInstType::SimdSha1Hash2            0                       # Class of executed instruction. (Count)
system.atomicCpu2.exec_context.thread_0.statExecutedInstType::SimdSha256Hash            0                       # Class of executed instruction. (Count)
system.atomicCpu2.exec_context.thread_0.statExecutedInstType::SimdSha256Hash2            0                       # Class of executed instruction. (Count)
system.atomicCpu2.exec_context.thread_0.statExecutedInstType::SimdShaSigma2            0                       # Class of executed instruction. (Count)
system.atomicCpu2.exec_context.thread_0.statExecutedInstType::SimdShaSigma3            0                       # Class of executed instruction. (Count)
system.atomicCpu2.exec_context.thread_0.statExecutedInstType::SimdPredAlu            0                       # Class of executed instruction. (Count)
system.atomicCpu2.exec_context.thread_0.statExecutedInstType::MemRead            0                       # Class of executed instruction. (Count)
system.atomicCpu2.exec_context.thread_0.statExecutedInstType::MemWrite            0                       # Class of executed instruction. (Count)
system.atomicCpu2.exec_context.thread_0.statExecutedInstType::FloatMemRead            0                       # Class of executed instruction. (Count)
system.atomicCpu2.exec_context.thread_0.statExecutedInstType::FloatMemWrite            0                       # Class of executed instruction. (Count)
system.atomicCpu2.exec_context.thread_0.statExecutedInstType::IprAccess            0                       # Class of executed instruction. (Count)
system.atomicCpu2.exec_context.thread_0.statExecutedInstType::InstPrefetch            0                       # Class of executed instruction. (Count)
system.atomicCpu2.exec_context.thread_0.statExecutedInstType::total            0                       # Class of executed instruction. (Count)
system.atomicCpu2.mmu.dtb.rdAccesses                0                       # TLB accesses on read requests (Count)
system.atomicCpu2.mmu.dtb.wrAccesses                0                       # TLB accesses on write requests (Count)
system.atomicCpu2.mmu.dtb.rdMisses                  0                       # TLB misses on read requests (Count)
system.atomicCpu2.mmu.dtb.wrMisses                  0                       # TLB misses on write requests (Count)
system.atomicCpu2.mmu.dtb.walker.power_state.pwrStateResidencyTicks::UNDEFINED 366391400544800                       # Cumulative time (in ticks) in various power states (Tick)
system.atomicCpu2.mmu.itb.rdAccesses                0                       # TLB accesses on read requests (Count)
system.atomicCpu2.mmu.itb.wrAccesses                0                       # TLB accesses on write requests (Count)
system.atomicCpu2.mmu.itb.rdMisses                  0                       # TLB misses on read requests (Count)
system.atomicCpu2.mmu.itb.wrMisses                  0                       # TLB misses on write requests (Count)
system.atomicCpu2.mmu.itb.walker.power_state.pwrStateResidencyTicks::UNDEFINED 366391400544800                       # Cumulative time (in ticks) in various power states (Tick)
system.atomicCpu2.power_state.pwrStateResidencyTicks::OFF 366391400544800                       # Cumulative time (in ticks) in various power states (Tick)
system.atomicCpu2.thread_0.numInsts                 0                       # Number of Instructions committed (Count)
system.atomicCpu2.thread_0.numOps                   0                       # Number of Ops committed (Count)
system.atomicCpu2.thread_0.numMemRefs               0                       # Number of Memory References (Count)
system.atomicCpu3.numCycles                         0                       # Number of cpu cycles simulated (Cycle)
system.atomicCpu3.numWorkItemsStarted               0                       # Number of work items this cpu started (Count)
system.atomicCpu3.numWorkItemsCompleted             0                       # Number of work items this cpu completed (Count)
system.atomicCpu3.exec_context.thread_0.numInsts            0                       # Number of instructions committed (Count)
system.atomicCpu3.exec_context.thread_0.numOps            0                       # Number of ops (including micro ops) committed (Count)
system.atomicCpu3.exec_context.thread_0.numIntAluAccesses            0                       # Number of integer alu accesses (Count)
system.atomicCpu3.exec_context.thread_0.numFpAluAccesses            0                       # Number of float alu accesses (Count)
system.atomicCpu3.exec_context.thread_0.numVecAluAccesses            0                       # Number of vector alu accesses (Count)
system.atomicCpu3.exec_context.thread_0.numCallsReturns            0                       # Number of times a function call or return occured (Count)
system.atomicCpu3.exec_context.thread_0.numCondCtrlInsts            0                       # Number of instructions that are conditional controls (Count)
system.atomicCpu3.exec_context.thread_0.numIntInsts            0                       # Number of integer instructions (Count)
system.atomicCpu3.exec_context.thread_0.numFpInsts            0                       # Number of float instructions (Count)
system.atomicCpu3.exec_context.thread_0.numVecInsts            0                       # Number of vector instructions (Count)
system.atomicCpu3.exec_context.thread_0.numIntRegReads            0                       # Number of times the integer registers were read (Count)
system.atomicCpu3.exec_context.thread_0.numIntRegWrites            0                       # Number of times the integer registers were written (Count)
system.atomicCpu3.exec_context.thread_0.numFpRegReads            0                       # Number of times the floating registers were read (Count)
system.atomicCpu3.exec_context.thread_0.numFpRegWrites            0                       # Number of times the floating registers were written (Count)
system.atomicCpu3.exec_context.thread_0.numVecRegReads            0                       # Number of times the vector registers were read (Count)
system.atomicCpu3.exec_context.thread_0.numVecRegWrites            0                       # Number of times the vector registers were written (Count)
system.atomicCpu3.exec_context.thread_0.numVecPredRegReads            0                       # Number of times the predicate registers were read (Count)
system.atomicCpu3.exec_context.thread_0.numVecPredRegWrites            0                       # Number of times the predicate registers were written (Count)
system.atomicCpu3.exec_context.thread_0.numMiscRegReads            0                       # Number of times the Misc registers were read (Count)
system.atomicCpu3.exec_context.thread_0.numMiscRegWrites            0                       # Number of times the Misc registers were written (Count)
system.atomicCpu3.exec_context.thread_0.numMemRefs            0                       # Number of memory refs (Count)
system.atomicCpu3.exec_context.thread_0.numLoadInsts            0                       # Number of load instructions (Count)
system.atomicCpu3.exec_context.thread_0.numStoreInsts            0                       # Number of store instructions (Count)
system.atomicCpu3.exec_context.thread_0.numIdleCycles            0                       # Number of idle cycles (Cycle)
system.atomicCpu3.exec_context.thread_0.numBusyCycles            0                       # Number of busy cycles (Cycle)
system.atomicCpu3.exec_context.thread_0.notIdleFraction            0                       # Percentage of non-idle cycles (Ratio)
system.atomicCpu3.exec_context.thread_0.idleFraction            1                       # Percentage of idle cycles (Ratio)
system.atomicCpu3.exec_context.thread_0.statExecutedInstType::No_OpClass            0                       # Class of executed instruction. (Count)
system.atomicCpu3.exec_context.thread_0.statExecutedInstType::IntAlu            0                       # Class of executed instruction. (Count)
system.atomicCpu3.exec_context.thread_0.statExecutedInstType::IntMult            0                       # Class of executed instruction. (Count)
system.atomicCpu3.exec_context.thread_0.statExecutedInstType::IntDiv            0                       # Class of executed instruction. (Count)
system.atomicCpu3.exec_context.thread_0.statExecutedInstType::FloatAdd            0                       # Class of executed instruction. (Count)
system.atomicCpu3.exec_context.thread_0.statExecutedInstType::FloatCmp            0                       # Class of executed instruction. (Count)
system.atomicCpu3.exec_context.thread_0.statExecutedInstType::FloatCvt            0                       # Class of executed instruction. (Count)
system.atomicCpu3.exec_context.thread_0.statExecutedInstType::FloatMult            0                       # Class of executed instruction. (Count)
system.atomicCpu3.exec_context.thread_0.statExecutedInstType::FloatMultAcc            0                       # Class of executed instruction. (Count)
system.atomicCpu3.exec_context.thread_0.statExecutedInstType::FloatDiv            0                       # Class of executed instruction. (Count)
system.atomicCpu3.exec_context.thread_0.statExecutedInstType::FloatMisc            0                       # Class of executed instruction. (Count)
system.atomicCpu3.exec_context.thread_0.statExecutedInstType::FloatSqrt            0                       # Class of executed instruction. (Count)
system.atomicCpu3.exec_context.thread_0.statExecutedInstType::SimdAdd            0                       # Class of executed instruction. (Count)
system.atomicCpu3.exec_context.thread_0.statExecutedInstType::SimdAddAcc            0                       # Class of executed instruction. (Count)
system.atomicCpu3.exec_context.thread_0.statExecutedInstType::SimdAlu            0                       # Class of executed instruction. (Count)
system.atomicCpu3.exec_context.thread_0.statExecutedInstType::SimdCmp            0                       # Class of executed instruction. (Count)
system.atomicCpu3.exec_context.thread_0.statExecutedInstType::SimdCvt            0                       # Class of executed instruction. (Count)
system.atomicCpu3.exec_context.thread_0.statExecutedInstType::SimdMisc            0                       # Class of executed instruction. (Count)
system.atomicCpu3.exec_context.thread_0.statExecutedInstType::SimdMult            0                       # Class of executed instruction. (Count)
system.atomicCpu3.exec_context.thread_0.statExecutedInstType::SimdMultAcc            0                       # Class of executed instruction. (Count)
system.atomicCpu3.exec_context.thread_0.statExecutedInstType::SimdShift            0                       # Class of executed instruction. (Count)
system.atomicCpu3.exec_context.thread_0.statExecutedInstType::SimdShiftAcc            0                       # Class of executed instruction. (Count)
system.atomicCpu3.exec_context.thread_0.statExecutedInstType::SimdDiv            0                       # Class of executed instruction. (Count)
system.atomicCpu3.exec_context.thread_0.statExecutedInstType::SimdSqrt            0                       # Class of executed instruction. (Count)
system.atomicCpu3.exec_context.thread_0.statExecutedInstType::SimdFloatAdd            0                       # Class of executed instruction. (Count)
system.atomicCpu3.exec_context.thread_0.statExecutedInstType::SimdFloatAlu            0                       # Class of executed instruction. (Count)
system.atomicCpu3.exec_context.thread_0.statExecutedInstType::SimdFloatCmp            0                       # Class of executed instruction. (Count)
system.atomicCpu3.exec_context.thread_0.statExecutedInstType::SimdFloatCvt            0                       # Class of executed instruction. (Count)
system.atomicCpu3.exec_context.thread_0.statExecutedInstType::SimdFloatDiv            0                       # Class of executed instruction. (Count)
system.atomicCpu3.exec_context.thread_0.statExecutedInstType::SimdFloatMisc            0                       # Class of executed instruction. (Count)
system.atomicCpu3.exec_context.thread_0.statExecutedInstType::SimdFloatMult            0                       # Class of executed instruction. (Count)
system.atomicCpu3.exec_context.thread_0.statExecutedInstType::SimdFloatMultAcc            0                       # Class of executed instruction. (Count)
system.atomicCpu3.exec_context.thread_0.statExecutedInstType::SimdFloatSqrt            0                       # Class of executed instruction. (Count)
system.atomicCpu3.exec_context.thread_0.statExecutedInstType::SimdReduceAdd            0                       # Class of executed instruction. (Count)
system.atomicCpu3.exec_context.thread_0.statExecutedInstType::SimdReduceAlu            0                       # Class of executed instruction. (Count)
system.atomicCpu3.exec_context.thread_0.statExecutedInstType::SimdReduceCmp            0                       # Class of executed instruction. (Count)
system.atomicCpu3.exec_context.thread_0.statExecutedInstType::SimdFloatReduceAdd            0                       # Class of executed instruction. (Count)
system.atomicCpu3.exec_context.thread_0.statExecutedInstType::SimdFloatReduceCmp            0                       # Class of executed instruction. (Count)
system.atomicCpu3.exec_context.thread_0.statExecutedInstType::SimdAes            0                       # Class of executed instruction. (Count)
system.atomicCpu3.exec_context.thread_0.statExecutedInstType::SimdAesMix            0                       # Class of executed instruction. (Count)
system.atomicCpu3.exec_context.thread_0.statExecutedInstType::SimdSha1Hash            0                       # Class of executed instruction. (Count)
system.atomicCpu3.exec_context.thread_0.statExecutedInstType::SimdSha1Hash2            0                       # Class of executed instruction. (Count)
system.atomicCpu3.exec_context.thread_0.statExecutedInstType::SimdSha256Hash            0                       # Class of executed instruction. (Count)
system.atomicCpu3.exec_context.thread_0.statExecutedInstType::SimdSha256Hash2            0                       # Class of executed instruction. (Count)
system.atomicCpu3.exec_context.thread_0.statExecutedInstType::SimdShaSigma2            0                       # Class of executed instruction. (Count)
system.atomicCpu3.exec_context.thread_0.statExecutedInstType::SimdShaSigma3            0                       # Class of executed instruction. (Count)
system.atomicCpu3.exec_context.thread_0.statExecutedInstType::SimdPredAlu            0                       # Class of executed instruction. (Count)
system.atomicCpu3.exec_context.thread_0.statExecutedInstType::MemRead            0                       # Class of executed instruction. (Count)
system.atomicCpu3.exec_context.thread_0.statExecutedInstType::MemWrite            0                       # Class of executed instruction. (Count)
system.atomicCpu3.exec_context.thread_0.statExecutedInstType::FloatMemRead            0                       # Class of executed instruction. (Count)
system.atomicCpu3.exec_context.thread_0.statExecutedInstType::FloatMemWrite            0                       # Class of executed instruction. (Count)
system.atomicCpu3.exec_context.thread_0.statExecutedInstType::IprAccess            0                       # Class of executed instruction. (Count)
system.atomicCpu3.exec_context.thread_0.statExecutedInstType::InstPrefetch            0                       # Class of executed instruction. (Count)
system.atomicCpu3.exec_context.thread_0.statExecutedInstType::total            0                       # Class of executed instruction. (Count)
system.atomicCpu3.mmu.dtb.rdAccesses                0                       # TLB accesses on read requests (Count)
system.atomicCpu3.mmu.dtb.wrAccesses                0                       # TLB accesses on write requests (Count)
system.atomicCpu3.mmu.dtb.rdMisses                  0                       # TLB misses on read requests (Count)
system.atomicCpu3.mmu.dtb.wrMisses                  0                       # TLB misses on write requests (Count)
system.atomicCpu3.mmu.dtb.walker.power_state.pwrStateResidencyTicks::UNDEFINED 366391400544800                       # Cumulative time (in ticks) in various power states (Tick)
system.atomicCpu3.mmu.itb.rdAccesses                0                       # TLB accesses on read requests (Count)
system.atomicCpu3.mmu.itb.wrAccesses                0                       # TLB accesses on write requests (Count)
system.atomicCpu3.mmu.itb.rdMisses                  0                       # TLB misses on read requests (Count)
system.atomicCpu3.mmu.itb.wrMisses                  0                       # TLB misses on write requests (Count)
system.atomicCpu3.mmu.itb.walker.power_state.pwrStateResidencyTicks::UNDEFINED 366391400544800                       # Cumulative time (in ticks) in various power states (Tick)
system.atomicCpu3.power_state.pwrStateResidencyTicks::OFF 366391400544800                       # Cumulative time (in ticks) in various power states (Tick)
system.atomicCpu3.thread_0.numInsts                 0                       # Number of Instructions committed (Count)
system.atomicCpu3.thread_0.numOps                   0                       # Number of Ops committed (Count)
system.atomicCpu3.thread_0.numMemRefs               0                       # Number of Memory References (Count)
system.atomicCpu4.numCycles                         0                       # Number of cpu cycles simulated (Cycle)
system.atomicCpu4.numWorkItemsStarted               0                       # Number of work items this cpu started (Count)
system.atomicCpu4.numWorkItemsCompleted             0                       # Number of work items this cpu completed (Count)
system.atomicCpu4.exec_context.thread_0.numInsts            0                       # Number of instructions committed (Count)
system.atomicCpu4.exec_context.thread_0.numOps            0                       # Number of ops (including micro ops) committed (Count)
system.atomicCpu4.exec_context.thread_0.numIntAluAccesses            0                       # Number of integer alu accesses (Count)
system.atomicCpu4.exec_context.thread_0.numFpAluAccesses            0                       # Number of float alu accesses (Count)
system.atomicCpu4.exec_context.thread_0.numVecAluAccesses            0                       # Number of vector alu accesses (Count)
system.atomicCpu4.exec_context.thread_0.numCallsReturns            0                       # Number of times a function call or return occured (Count)
system.atomicCpu4.exec_context.thread_0.numCondCtrlInsts            0                       # Number of instructions that are conditional controls (Count)
system.atomicCpu4.exec_context.thread_0.numIntInsts            0                       # Number of integer instructions (Count)
system.atomicCpu4.exec_context.thread_0.numFpInsts            0                       # Number of float instructions (Count)
system.atomicCpu4.exec_context.thread_0.numVecInsts            0                       # Number of vector instructions (Count)
system.atomicCpu4.exec_context.thread_0.numIntRegReads            0                       # Number of times the integer registers were read (Count)
system.atomicCpu4.exec_context.thread_0.numIntRegWrites            0                       # Number of times the integer registers were written (Count)
system.atomicCpu4.exec_context.thread_0.numFpRegReads            0                       # Number of times the floating registers were read (Count)
system.atomicCpu4.exec_context.thread_0.numFpRegWrites            0                       # Number of times the floating registers were written (Count)
system.atomicCpu4.exec_context.thread_0.numVecRegReads            0                       # Number of times the vector registers were read (Count)
system.atomicCpu4.exec_context.thread_0.numVecRegWrites            0                       # Number of times the vector registers were written (Count)
system.atomicCpu4.exec_context.thread_0.numVecPredRegReads            0                       # Number of times the predicate registers were read (Count)
system.atomicCpu4.exec_context.thread_0.numVecPredRegWrites            0                       # Number of times the predicate registers were written (Count)
system.atomicCpu4.exec_context.thread_0.numMiscRegReads            0                       # Number of times the Misc registers were read (Count)
system.atomicCpu4.exec_context.thread_0.numMiscRegWrites            0                       # Number of times the Misc registers were written (Count)
system.atomicCpu4.exec_context.thread_0.numMemRefs            0                       # Number of memory refs (Count)
system.atomicCpu4.exec_context.thread_0.numLoadInsts            0                       # Number of load instructions (Count)
system.atomicCpu4.exec_context.thread_0.numStoreInsts            0                       # Number of store instructions (Count)
system.atomicCpu4.exec_context.thread_0.numIdleCycles            0                       # Number of idle cycles (Cycle)
system.atomicCpu4.exec_context.thread_0.numBusyCycles            0                       # Number of busy cycles (Cycle)
system.atomicCpu4.exec_context.thread_0.notIdleFraction            0                       # Percentage of non-idle cycles (Ratio)
system.atomicCpu4.exec_context.thread_0.idleFraction            1                       # Percentage of idle cycles (Ratio)
system.atomicCpu4.exec_context.thread_0.statExecutedInstType::No_OpClass            0                       # Class of executed instruction. (Count)
system.atomicCpu4.exec_context.thread_0.statExecutedInstType::IntAlu            0                       # Class of executed instruction. (Count)
system.atomicCpu4.exec_context.thread_0.statExecutedInstType::IntMult            0                       # Class of executed instruction. (Count)
system.atomicCpu4.exec_context.thread_0.statExecutedInstType::IntDiv            0                       # Class of executed instruction. (Count)
system.atomicCpu4.exec_context.thread_0.statExecutedInstType::FloatAdd            0                       # Class of executed instruction. (Count)
system.atomicCpu4.exec_context.thread_0.statExecutedInstType::FloatCmp            0                       # Class of executed instruction. (Count)
system.atomicCpu4.exec_context.thread_0.statExecutedInstType::FloatCvt            0                       # Class of executed instruction. (Count)
system.atomicCpu4.exec_context.thread_0.statExecutedInstType::FloatMult            0                       # Class of executed instruction. (Count)
system.atomicCpu4.exec_context.thread_0.statExecutedInstType::FloatMultAcc            0                       # Class of executed instruction. (Count)
system.atomicCpu4.exec_context.thread_0.statExecutedInstType::FloatDiv            0                       # Class of executed instruction. (Count)
system.atomicCpu4.exec_context.thread_0.statExecutedInstType::FloatMisc            0                       # Class of executed instruction. (Count)
system.atomicCpu4.exec_context.thread_0.statExecutedInstType::FloatSqrt            0                       # Class of executed instruction. (Count)
system.atomicCpu4.exec_context.thread_0.statExecutedInstType::SimdAdd            0                       # Class of executed instruction. (Count)
system.atomicCpu4.exec_context.thread_0.statExecutedInstType::SimdAddAcc            0                       # Class of executed instruction. (Count)
system.atomicCpu4.exec_context.thread_0.statExecutedInstType::SimdAlu            0                       # Class of executed instruction. (Count)
system.atomicCpu4.exec_context.thread_0.statExecutedInstType::SimdCmp            0                       # Class of executed instruction. (Count)
system.atomicCpu4.exec_context.thread_0.statExecutedInstType::SimdCvt            0                       # Class of executed instruction. (Count)
system.atomicCpu4.exec_context.thread_0.statExecutedInstType::SimdMisc            0                       # Class of executed instruction. (Count)
system.atomicCpu4.exec_context.thread_0.statExecutedInstType::SimdMult            0                       # Class of executed instruction. (Count)
system.atomicCpu4.exec_context.thread_0.statExecutedInstType::SimdMultAcc            0                       # Class of executed instruction. (Count)
system.atomicCpu4.exec_context.thread_0.statExecutedInstType::SimdShift            0                       # Class of executed instruction. (Count)
system.atomicCpu4.exec_context.thread_0.statExecutedInstType::SimdShiftAcc            0                       # Class of executed instruction. (Count)
system.atomicCpu4.exec_context.thread_0.statExecutedInstType::SimdDiv            0                       # Class of executed instruction. (Count)
system.atomicCpu4.exec_context.thread_0.statExecutedInstType::SimdSqrt            0                       # Class of executed instruction. (Count)
system.atomicCpu4.exec_context.thread_0.statExecutedInstType::SimdFloatAdd            0                       # Class of executed instruction. (Count)
system.atomicCpu4.exec_context.thread_0.statExecutedInstType::SimdFloatAlu            0                       # Class of executed instruction. (Count)
system.atomicCpu4.exec_context.thread_0.statExecutedInstType::SimdFloatCmp            0                       # Class of executed instruction. (Count)
system.atomicCpu4.exec_context.thread_0.statExecutedInstType::SimdFloatCvt            0                       # Class of executed instruction. (Count)
system.atomicCpu4.exec_context.thread_0.statExecutedInstType::SimdFloatDiv            0                       # Class of executed instruction. (Count)
system.atomicCpu4.exec_context.thread_0.statExecutedInstType::SimdFloatMisc            0                       # Class of executed instruction. (Count)
system.atomicCpu4.exec_context.thread_0.statExecutedInstType::SimdFloatMult            0                       # Class of executed instruction. (Count)
system.atomicCpu4.exec_context.thread_0.statExecutedInstType::SimdFloatMultAcc            0                       # Class of executed instruction. (Count)
system.atomicCpu4.exec_context.thread_0.statExecutedInstType::SimdFloatSqrt            0                       # Class of executed instruction. (Count)
system.atomicCpu4.exec_context.thread_0.statExecutedInstType::SimdReduceAdd            0                       # Class of executed instruction. (Count)
system.atomicCpu4.exec_context.thread_0.statExecutedInstType::SimdReduceAlu            0                       # Class of executed instruction. (Count)
system.atomicCpu4.exec_context.thread_0.statExecutedInstType::SimdReduceCmp            0                       # Class of executed instruction. (Count)
system.atomicCpu4.exec_context.thread_0.statExecutedInstType::SimdFloatReduceAdd            0                       # Class of executed instruction. (Count)
system.atomicCpu4.exec_context.thread_0.statExecutedInstType::SimdFloatReduceCmp            0                       # Class of executed instruction. (Count)
system.atomicCpu4.exec_context.thread_0.statExecutedInstType::SimdAes            0                       # Class of executed instruction. (Count)
system.atomicCpu4.exec_context.thread_0.statExecutedInstType::SimdAesMix            0                       # Class of executed instruction. (Count)
system.atomicCpu4.exec_context.thread_0.statExecutedInstType::SimdSha1Hash            0                       # Class of executed instruction. (Count)
system.atomicCpu4.exec_context.thread_0.statExecutedInstType::SimdSha1Hash2            0                       # Class of executed instruction. (Count)
system.atomicCpu4.exec_context.thread_0.statExecutedInstType::SimdSha256Hash            0                       # Class of executed instruction. (Count)
system.atomicCpu4.exec_context.thread_0.statExecutedInstType::SimdSha256Hash2            0                       # Class of executed instruction. (Count)
system.atomicCpu4.exec_context.thread_0.statExecutedInstType::SimdShaSigma2            0                       # Class of executed instruction. (Count)
system.atomicCpu4.exec_context.thread_0.statExecutedInstType::SimdShaSigma3            0                       # Class of executed instruction. (Count)
system.atomicCpu4.exec_context.thread_0.statExecutedInstType::SimdPredAlu            0                       # Class of executed instruction. (Count)
system.atomicCpu4.exec_context.thread_0.statExecutedInstType::MemRead            0                       # Class of executed instruction. (Count)
system.atomicCpu4.exec_context.thread_0.statExecutedInstType::MemWrite            0                       # Class of executed instruction. (Count)
system.atomicCpu4.exec_context.thread_0.statExecutedInstType::FloatMemRead            0                       # Class of executed instruction. (Count)
system.atomicCpu4.exec_context.thread_0.statExecutedInstType::FloatMemWrite            0                       # Class of executed instruction. (Count)
system.atomicCpu4.exec_context.thread_0.statExecutedInstType::IprAccess            0                       # Class of executed instruction. (Count)
system.atomicCpu4.exec_context.thread_0.statExecutedInstType::InstPrefetch            0                       # Class of executed instruction. (Count)
system.atomicCpu4.exec_context.thread_0.statExecutedInstType::total            0                       # Class of executed instruction. (Count)
system.atomicCpu4.mmu.dtb.rdAccesses                0                       # TLB accesses on read requests (Count)
system.atomicCpu4.mmu.dtb.wrAccesses                0                       # TLB accesses on write requests (Count)
system.atomicCpu4.mmu.dtb.rdMisses                  0                       # TLB misses on read requests (Count)
system.atomicCpu4.mmu.dtb.wrMisses                  0                       # TLB misses on write requests (Count)
system.atomicCpu4.mmu.dtb.walker.power_state.pwrStateResidencyTicks::UNDEFINED 366391400544800                       # Cumulative time (in ticks) in various power states (Tick)
system.atomicCpu4.mmu.itb.rdAccesses                0                       # TLB accesses on read requests (Count)
system.atomicCpu4.mmu.itb.wrAccesses                0                       # TLB accesses on write requests (Count)
system.atomicCpu4.mmu.itb.rdMisses                  0                       # TLB misses on read requests (Count)
system.atomicCpu4.mmu.itb.wrMisses                  0                       # TLB misses on write requests (Count)
system.atomicCpu4.mmu.itb.walker.power_state.pwrStateResidencyTicks::UNDEFINED 366391400544800                       # Cumulative time (in ticks) in various power states (Tick)
system.atomicCpu4.power_state.pwrStateResidencyTicks::OFF 366391400544800                       # Cumulative time (in ticks) in various power states (Tick)
system.atomicCpu4.thread_0.numInsts                 0                       # Number of Instructions committed (Count)
system.atomicCpu4.thread_0.numOps                   0                       # Number of Ops committed (Count)
system.atomicCpu4.thread_0.numMemRefs               0                       # Number of Memory References (Count)
system.atomicCpu5.numCycles                         0                       # Number of cpu cycles simulated (Cycle)
system.atomicCpu5.numWorkItemsStarted               0                       # Number of work items this cpu started (Count)
system.atomicCpu5.numWorkItemsCompleted             0                       # Number of work items this cpu completed (Count)
system.atomicCpu5.exec_context.thread_0.numInsts            0                       # Number of instructions committed (Count)
system.atomicCpu5.exec_context.thread_0.numOps            0                       # Number of ops (including micro ops) committed (Count)
system.atomicCpu5.exec_context.thread_0.numIntAluAccesses            0                       # Number of integer alu accesses (Count)
system.atomicCpu5.exec_context.thread_0.numFpAluAccesses            0                       # Number of float alu accesses (Count)
system.atomicCpu5.exec_context.thread_0.numVecAluAccesses            0                       # Number of vector alu accesses (Count)
system.atomicCpu5.exec_context.thread_0.numCallsReturns            0                       # Number of times a function call or return occured (Count)
system.atomicCpu5.exec_context.thread_0.numCondCtrlInsts            0                       # Number of instructions that are conditional controls (Count)
system.atomicCpu5.exec_context.thread_0.numIntInsts            0                       # Number of integer instructions (Count)
system.atomicCpu5.exec_context.thread_0.numFpInsts            0                       # Number of float instructions (Count)
system.atomicCpu5.exec_context.thread_0.numVecInsts            0                       # Number of vector instructions (Count)
system.atomicCpu5.exec_context.thread_0.numIntRegReads            0                       # Number of times the integer registers were read (Count)
system.atomicCpu5.exec_context.thread_0.numIntRegWrites            0                       # Number of times the integer registers were written (Count)
system.atomicCpu5.exec_context.thread_0.numFpRegReads            0                       # Number of times the floating registers were read (Count)
system.atomicCpu5.exec_context.thread_0.numFpRegWrites            0                       # Number of times the floating registers were written (Count)
system.atomicCpu5.exec_context.thread_0.numVecRegReads            0                       # Number of times the vector registers were read (Count)
system.atomicCpu5.exec_context.thread_0.numVecRegWrites            0                       # Number of times the vector registers were written (Count)
system.atomicCpu5.exec_context.thread_0.numVecPredRegReads            0                       # Number of times the predicate registers were read (Count)
system.atomicCpu5.exec_context.thread_0.numVecPredRegWrites            0                       # Number of times the predicate registers were written (Count)
system.atomicCpu5.exec_context.thread_0.numMiscRegReads            0                       # Number of times the Misc registers were read (Count)
system.atomicCpu5.exec_context.thread_0.numMiscRegWrites            0                       # Number of times the Misc registers were written (Count)
system.atomicCpu5.exec_context.thread_0.numMemRefs            0                       # Number of memory refs (Count)
system.atomicCpu5.exec_context.thread_0.numLoadInsts            0                       # Number of load instructions (Count)
system.atomicCpu5.exec_context.thread_0.numStoreInsts            0                       # Number of store instructions (Count)
system.atomicCpu5.exec_context.thread_0.numIdleCycles            0                       # Number of idle cycles (Cycle)
system.atomicCpu5.exec_context.thread_0.numBusyCycles            0                       # Number of busy cycles (Cycle)
system.atomicCpu5.exec_context.thread_0.notIdleFraction            0                       # Percentage of non-idle cycles (Ratio)
system.atomicCpu5.exec_context.thread_0.idleFraction            1                       # Percentage of idle cycles (Ratio)
system.atomicCpu5.exec_context.thread_0.statExecutedInstType::No_OpClass            0                       # Class of executed instruction. (Count)
system.atomicCpu5.exec_context.thread_0.statExecutedInstType::IntAlu            0                       # Class of executed instruction. (Count)
system.atomicCpu5.exec_context.thread_0.statExecutedInstType::IntMult            0                       # Class of executed instruction. (Count)
system.atomicCpu5.exec_context.thread_0.statExecutedInstType::IntDiv            0                       # Class of executed instruction. (Count)
system.atomicCpu5.exec_context.thread_0.statExecutedInstType::FloatAdd            0                       # Class of executed instruction. (Count)
system.atomicCpu5.exec_context.thread_0.statExecutedInstType::FloatCmp            0                       # Class of executed instruction. (Count)
system.atomicCpu5.exec_context.thread_0.statExecutedInstType::FloatCvt            0                       # Class of executed instruction. (Count)
system.atomicCpu5.exec_context.thread_0.statExecutedInstType::FloatMult            0                       # Class of executed instruction. (Count)
system.atomicCpu5.exec_context.thread_0.statExecutedInstType::FloatMultAcc            0                       # Class of executed instruction. (Count)
system.atomicCpu5.exec_context.thread_0.statExecutedInstType::FloatDiv            0                       # Class of executed instruction. (Count)
system.atomicCpu5.exec_context.thread_0.statExecutedInstType::FloatMisc            0                       # Class of executed instruction. (Count)
system.atomicCpu5.exec_context.thread_0.statExecutedInstType::FloatSqrt            0                       # Class of executed instruction. (Count)
system.atomicCpu5.exec_context.thread_0.statExecutedInstType::SimdAdd            0                       # Class of executed instruction. (Count)
system.atomicCpu5.exec_context.thread_0.statExecutedInstType::SimdAddAcc            0                       # Class of executed instruction. (Count)
system.atomicCpu5.exec_context.thread_0.statExecutedInstType::SimdAlu            0                       # Class of executed instruction. (Count)
system.atomicCpu5.exec_context.thread_0.statExecutedInstType::SimdCmp            0                       # Class of executed instruction. (Count)
system.atomicCpu5.exec_context.thread_0.statExecutedInstType::SimdCvt            0                       # Class of executed instruction. (Count)
system.atomicCpu5.exec_context.thread_0.statExecutedInstType::SimdMisc            0                       # Class of executed instruction. (Count)
system.atomicCpu5.exec_context.thread_0.statExecutedInstType::SimdMult            0                       # Class of executed instruction. (Count)
system.atomicCpu5.exec_context.thread_0.statExecutedInstType::SimdMultAcc            0                       # Class of executed instruction. (Count)
system.atomicCpu5.exec_context.thread_0.statExecutedInstType::SimdShift            0                       # Class of executed instruction. (Count)
system.atomicCpu5.exec_context.thread_0.statExecutedInstType::SimdShiftAcc            0                       # Class of executed instruction. (Count)
system.atomicCpu5.exec_context.thread_0.statExecutedInstType::SimdDiv            0                       # Class of executed instruction. (Count)
system.atomicCpu5.exec_context.thread_0.statExecutedInstType::SimdSqrt            0                       # Class of executed instruction. (Count)
system.atomicCpu5.exec_context.thread_0.statExecutedInstType::SimdFloatAdd            0                       # Class of executed instruction. (Count)
system.atomicCpu5.exec_context.thread_0.statExecutedInstType::SimdFloatAlu            0                       # Class of executed instruction. (Count)
system.atomicCpu5.exec_context.thread_0.statExecutedInstType::SimdFloatCmp            0                       # Class of executed instruction. (Count)
system.atomicCpu5.exec_context.thread_0.statExecutedInstType::SimdFloatCvt            0                       # Class of executed instruction. (Count)
system.atomicCpu5.exec_context.thread_0.statExecutedInstType::SimdFloatDiv            0                       # Class of executed instruction. (Count)
system.atomicCpu5.exec_context.thread_0.statExecutedInstType::SimdFloatMisc            0                       # Class of executed instruction. (Count)
system.atomicCpu5.exec_context.thread_0.statExecutedInstType::SimdFloatMult            0                       # Class of executed instruction. (Count)
[...]
system.timingCpu6.exec_context.thread_0.statExecutedInstType::MemWrite     25268719      0.82%     76.47% # Class of executed instruction. (Count)
system.timingCpu6.exec_context.thread_0.statExecutedInstType::FloatMemRead    562095302     18.23%     94.70% # Class of executed instruction. (Count)
system.timingCpu6.exec_context.thread_0.statExecutedInstType::FloatMemWrite    163576362      5.30%    100.00% # Class of executed instruction. (Count)
system.timingCpu6.exec_context.thread_0.statExecutedInstType::IprAccess            0      0.00%    100.00% # Class of executed instruction. (Count)
system.timingCpu6.exec_context.thread_0.statExecutedInstType::InstPrefetch            0      0.00%    100.00% # Class of executed instruction. (Count)
system.timingCpu6.exec_context.thread_0.statExecutedInstType::total   3083720537                       # Class of executed instruction. (Count)
system.timingCpu6.mmu.dtb.rdAccesses        598100623                       # TLB accesses on read requests (Count)
system.timingCpu6.mmu.dtb.wrAccesses        189135119                       # TLB accesses on write requests (Count)
system.timingCpu6.mmu.dtb.rdMisses            2574017                       # TLB misses on read requests (Count)
system.timingCpu6.mmu.dtb.wrMisses             290082                       # TLB misses on write requests (Count)
system.timingCpu6.mmu.dtb.walker.power_state.pwrStateResidencyTicks::UNDEFINED 3000000000000                       # Cumulative time (in ticks) in various power states (Tick)
system.timingCpu6.mmu.itb.rdAccesses                0                       # TLB accesses on read requests (Count)
system.timingCpu6.mmu.itb.wrAccesses       2853262003                       # TLB accesses on write requests (Count)
system.timingCpu6.mmu.itb.rdMisses                  0                       # TLB misses on read requests (Count)
system.timingCpu6.mmu.itb.wrMisses               7178                       # TLB misses on write requests (Count)
system.timingCpu6.mmu.itb.walker.power_state.pwrStateResidencyTicks::UNDEFINED 3000000000000                       # Cumulative time (in ticks) in various power states (Tick)
system.timingCpu6.power_state.numTransitions           36                       # Number of power state transitions (Count)
system.timingCpu6.power_state.ticksClkGated::samples           18                       # Distribution of time spent in the clock gated state (Tick)
system.timingCpu6.power_state.ticksClkGated::mean    766231500                       # Distribution of time spent in the clock gated state (Tick)
system.timingCpu6.power_state.ticksClkGated::stdev 356993145.391397                       # Distribution of time spent in the clock gated state (Tick)
system.timingCpu6.power_state.ticksClkGated::1000-5e+10           18    100.00%    100.00% # Distribution of time spent in the clock gated state (Tick)
system.timingCpu6.power_state.ticksClkGated::min_value      1430800                       # Distribution of time spent in the clock gated state (Tick)
system.timingCpu6.power_state.ticksClkGated::max_value    998538600                       # Distribution of time spent in the clock gated state (Tick)
system.timingCpu6.power_state.ticksClkGated::total           18                       # Distribution of time spent in the clock gated state (Tick)
system.timingCpu6.power_state.pwrStateResidencyTicks::ON 2986207833000                       # Cumulative time (in ticks) in various power states (Tick)
system.timingCpu6.power_state.pwrStateResidencyTicks::CLK_GATED  13792167000                       # Cumulative time (in ticks) in various power states (Tick)
system.timingCpu6.thread_0.numInsts                 0                       # Number of Instructions committed (Count)
system.timingCpu6.thread_0.numOps                   0                       # Number of Ops committed (Count)
system.timingCpu6.thread_0.numMemRefs               0                       # Number of Memory References (Count)
system.timingCpu7.numCycles               14999999944                       # Number of cpu cycles simulated (Cycle)
system.timingCpu7.numWorkItemsStarted               0                       # Number of work items this cpu started (Count)
system.timingCpu7.numWorkItemsCompleted             0                       # Number of work items this cpu completed (Count)
system.timingCpu7.exec_context.thread_0.numInsts   1856511989                       # Number of instructions committed (Count)
system.timingCpu7.exec_context.thread_0.numOps   3089262333                       # Number of ops (including micro ops) committed (Count)
system.timingCpu7.exec_context.thread_0.numIntAluAccesses   1213999040                       # Number of integer alu accesses (Count)
system.timingCpu7.exec_context.thread_0.numFpAluAccesses   2608937659                       # Number of float alu accesses (Count)
system.timingCpu7.exec_context.thread_0.numVecAluAccesses            0                       # Number of vector alu accesses (Count)
system.timingCpu7.exec_context.thread_0.numCallsReturns      6021038                       # Number of times a function call or return occured (Count)
system.timingCpu7.exec_context.thread_0.numCondCtrlInsts     27596687                       # Number of instructions that are conditional controls (Count)
system.timingCpu7.exec_context.thread_0.numIntInsts   1213999040                       # Number of integer instructions (Count)
system.timingCpu7.exec_context.thread_0.numFpInsts   2608937659                       # Number of float instructions (Count)
system.timingCpu7.exec_context.thread_0.numVecInsts            0                       # Number of vector instructions (Count)
system.timingCpu7.exec_context.thread_0.numIntRegReads   1171868538                       # Number of times the integer registers were read (Count)
system.timingCpu7.exec_context.thread_0.numIntRegWrites    386118850                       # Number of times the integer registers were written (Count)
system.timingCpu7.exec_context.thread_0.numFpRegReads   4471939566                       # Number of times the floating registers were read (Count)
system.timingCpu7.exec_context.thread_0.numFpRegWrites   2445545978                       # Number of times the floating registers were written (Count)
system.timingCpu7.exec_context.thread_0.numVecRegReads            0                       # Number of times the vector registers were read (Count)
system.timingCpu7.exec_context.thread_0.numVecRegWrites            0                       # Number of times the vector registers were written (Count)
system.timingCpu7.exec_context.thread_0.numVecPredRegReads            0                       # Number of times the predicate registers were read (Count)
system.timingCpu7.exec_context.thread_0.numVecPredRegWrites            0                       # Number of times the predicate registers were written (Count)
system.timingCpu7.exec_context.thread_0.numCCRegReads    148340861                       # Number of times the CC registers were read (Count)
system.timingCpu7.exec_context.thread_0.numCCRegWrites    189794127                       # Number of times the CC registers were written (Count)
system.timingCpu7.exec_context.thread_0.numMiscRegReads    966321207                       # Number of times the Misc registers were read (Count)
system.timingCpu7.exec_context.thread_0.numMiscRegWrites       102988                       # Number of times the Misc registers were written (Count)
system.timingCpu7.exec_context.thread_0.numMemRefs    785167638                       # Number of memory refs (Count)
system.timingCpu7.exec_context.thread_0.numLoadInsts    596567505                       # Number of load instructions (Count)
system.timingCpu7.exec_context.thread_0.numStoreInsts    188600133                       # Number of store instructions (Count)
system.timingCpu7.exec_context.thread_0.numIdleCycles 42046878.843011                       # Number of idle cycles (Cycle)
system.timingCpu7.exec_context.thread_0.numBusyCycles 14957953065.156990                       # Number of busy cycles (Cycle)
system.timingCpu7.exec_context.thread_0.notIdleFraction     0.997197                       # Percentage of non-idle cycles (Ratio)
system.timingCpu7.exec_context.thread_0.idleFraction     0.002803                       # Percentage of idle cycles (Ratio)
system.timingCpu7.exec_context.thread_0.numBranches     33959856                       # Number of branches fetched (Count)
system.timingCpu7.exec_context.thread_0.statExecutedInstType::No_OpClass       148121      0.00%      0.00% # Class of executed instruction. (Count)
system.timingCpu7.exec_context.thread_0.statExecutedInstType::IntAlu    887650286     28.73%     28.74% # Class of executed instruction. (Count)
system.timingCpu7.exec_context.thread_0.statExecutedInstType::IntMult      1029635      0.03%     28.77% # Class of executed instruction. (Count)
system.timingCpu7.exec_context.thread_0.statExecutedInstType::IntDiv       144591      0.00%     28.78% # Class of executed instruction. (Count)
system.timingCpu7.exec_context.thread_0.statExecutedInstType::FloatAdd    248764660      8.05%     36.83% # Class of executed instruction. (Count)
system.timingCpu7.exec_context.thread_0.statExecutedInstType::FloatCmp            0      0.00%     36.83% # Class of executed instruction. (Count)
system.timingCpu7.exec_context.thread_0.statExecutedInstType::FloatCvt          128      0.00%     36.83% # Class of executed instruction. (Count)
system.timingCpu7.exec_context.thread_0.statExecutedInstType::FloatMult            0      0.00%     36.83% # Class of executed instruction. (Count)
system.timingCpu7.exec_context.thread_0.statExecutedInstType::FloatMultAcc            0      0.00%     36.83% # Class of executed instruction. (Count)
system.timingCpu7.exec_context.thread_0.statExecutedInstType::FloatDiv            0      0.00%     36.83% # Class of executed instruction. (Count)
system.timingCpu7.exec_context.thread_0.statExecutedInstType::FloatMisc            0      0.00%     36.83% # Class of executed instruction. (Count)
system.timingCpu7.exec_context.thread_0.statExecutedInstType::FloatSqrt            0      0.00%     36.83% # Class of executed instruction. (Count)
system.timingCpu7.exec_context.thread_0.statExecutedInstType::SimdAdd            0      0.00%     36.83% # Class of executed instruction. (Count)
system.timingCpu7.exec_context.thread_0.statExecutedInstType::SimdAddAcc            0      0.00%     36.83% # Class of executed instruction. (Count)
system.timingCpu7.exec_context.thread_0.statExecutedInstType::SimdAlu     75349448      2.44%     39.27% # Class of executed instruction. (Count)
system.timingCpu7.exec_context.thread_0.statExecutedInstType::SimdCmp            0      0.00%     39.27% # Class of executed instruction. (Count)
system.timingCpu7.exec_context.thread_0.statExecutedInstType::SimdCvt            0      0.00%     39.27% # Class of executed instruction. (Count)
system.timingCpu7.exec_context.thread_0.statExecutedInstType::SimdMisc     17722122      0.57%     39.84% # Class of executed instruction. (Count)
system.timingCpu7.exec_context.thread_0.statExecutedInstType::SimdMult            0      0.00%     39.84% # Class of executed instruction. (Count)
system.timingCpu7.exec_context.thread_0.statExecutedInstType::SimdMultAcc            0      0.00%     39.84% # Class of executed instruction. (Count)
system.timingCpu7.exec_context.thread_0.statExecutedInstType::SimdShift            0      0.00%     39.84% # Class of executed instruction. (Count)
system.timingCpu7.exec_context.thread_0.statExecutedInstType::SimdShiftAcc            0      0.00%     39.84% # Class of executed instruction. (Count)
system.timingCpu7.exec_context.thread_0.statExecutedInstType::SimdDiv            0      0.00%     39.84% # Class of executed instruction. (Count)
system.timingCpu7.exec_context.thread_0.statExecutedInstType::SimdSqrt            0      0.00%     39.84% # Class of executed instruction. (Count)
system.timingCpu7.exec_context.thread_0.statExecutedInstType::SimdFloatAdd    513885032     16.63%     56.48% # Class of executed instruction. (Count)
system.timingCpu7.exec_context.thread_0.statExecutedInstType::SimdFloatAlu            0      0.00%     56.48% # Class of executed instruction. (Count)
system.timingCpu7.exec_context.thread_0.statExecutedInstType::SimdFloatCmp            0      0.00%     56.48% # Class of executed instruction. (Count)
system.timingCpu7.exec_context.thread_0.statExecutedInstType::SimdFloatCvt     17722117      0.57%     57.05% # Class of executed instruction. (Count)
system.timingCpu7.exec_context.thread_0.statExecutedInstType::SimdFloatDiv     18251607      0.59%     57.64% # Class of executed instruction. (Count)
system.timingCpu7.exec_context.thread_0.statExecutedInstType::SimdFloatMisc            0      0.00%     57.64% # Class of executed instruction. (Count)
system.timingCpu7.exec_context.thread_0.statExecutedInstType::SimdFloatMult    523426985     16.94%     74.58% # Class of executed instruction. (Count)
system.timingCpu7.exec_context.thread_0.statExecutedInstType::SimdFloatMultAcc            0      0.00%     74.58% # Class of executed instruction. (Count)
system.timingCpu7.exec_context.thread_0.statExecutedInstType::SimdFloatSqrt            0      0.00%     74.58% # Class of executed instruction. (Count)
system.timingCpu7.exec_context.thread_0.statExecutedInstType::SimdReduceAdd            0      0.00%     74.58% # Class of executed instruction. (Count)
system.timingCpu7.exec_context.thread_0.statExecutedInstType::SimdReduceAlu            0      0.00%     74.58% # Class of executed instruction. (Count)
system.timingCpu7.exec_context.thread_0.statExecutedInstType::SimdReduceCmp            0      0.00%     74.58% # Class of executed instruction. (Count)
system.timingCpu7.exec_context.thread_0.statExecutedInstType::SimdFloatReduceAdd            0      0.00%     74.58% # Class of executed instruction. (Count)
system.timingCpu7.exec_context.thread_0.statExecutedInstType::SimdFloatReduceCmp            0      0.00%     74.58% # Class of executed instruction. (Count)
system.timingCpu7.exec_context.thread_0.statExecutedInstType::SimdAes            0      0.00%     74.58% # Class of executed instruction. (Count)
system.timingCpu7.exec_context.thread_0.statExecutedInstType::SimdAesMix            0      0.00%     74.58% # Class of executed instruction. (Count)
system.timingCpu7.exec_context.thread_0.statExecutedInstType::SimdSha1Hash            0      0.00%     74.58% # Class of executed instruction. (Count)
system.timingCpu7.exec_context.thread_0.statExecutedInstType::SimdSha1Hash2            0      0.00%     74.58% # Class of executed instruction. (Count)
system.timingCpu7.exec_context.thread_0.statExecutedInstType::SimdSha256Hash            0      0.00%     74.58% # Class of executed instruction. (Count)
system.timingCpu7.exec_context.thread_0.statExecutedInstType::SimdSha256Hash2            0      0.00%     74.58% # Class of executed instruction. (Count)
system.timingCpu7.exec_context.thread_0.statExecutedInstType::SimdShaSigma2            0      0.00%     74.58% # Class of executed instruction. (Count)
system.timingCpu7.exec_context.thread_0.statExecutedInstType::SimdShaSigma3            0      0.00%     74.58% # Class of executed instruction. (Count)
system.timingCpu7.exec_context.thread_0.statExecutedInstType::SimdPredAlu            0      0.00%     74.58% # Class of executed instruction. (Count)
system.timingCpu7.exec_context.thread_0.statExecutedInstType::MemRead     35139376      1.14%     75.72% # Class of executed instruction. (Count)
system.timingCpu7.exec_context.thread_0.statExecutedInstType::MemWrite     25208585      0.82%     76.54% # Class of executed instruction. (Count)
system.timingCpu7.exec_context.thread_0.statExecutedInstType::FloatMemRead    561428129     18.17%     94.71% # Class of executed instruction. (Count)
system.timingCpu7.exec_context.thread_0.statExecutedInstType::FloatMemWrite    163391548      5.29%    100.00% # Class of executed instruction. (Count)
system.timingCpu7.exec_context.thread_0.statExecutedInstType::IprAccess            0      0.00%    100.00% # Class of executed instruction. (Count)
system.timingCpu7.exec_context.thread_0.statExecutedInstType::InstPrefetch            0      0.00%    100.00% # Class of executed instruction. (Count)
system.timingCpu7.exec_context.thread_0.statExecutedInstType::total   3089262370                       # Class of executed instruction. (Count)
system.timingCpu7.mmu.dtb.rdAccesses        599140364                       # TLB accesses on read requests (Count)
system.timingCpu7.mmu.dtb.wrAccesses        188890379                       # TLB accesses on write requests (Count)
system.timingCpu7.mmu.dtb.rdMisses            2572859                       # TLB misses on read requests (Count)
system.timingCpu7.mmu.dtb.wrMisses             290290                       # TLB misses on write requests (Count)
system.timingCpu7.mmu.dtb.walker.power_state.pwrStateResidencyTicks::UNDEFINED 3000000000000                       # Cumulative time (in ticks) in various power states (Tick)
system.timingCpu7.mmu.itb.rdAccesses                0                       # TLB accesses on read requests (Count)
system.timingCpu7.mmu.itb.wrAccesses       2855858028                       # TLB accesses on write requests (Count)
system.timingCpu7.mmu.itb.rdMisses                  0                       # TLB misses on read requests (Count)
system.timingCpu7.mmu.itb.wrMisses               7174                       # TLB misses on write requests (Count)
system.timingCpu7.mmu.itb.walker.power_state.pwrStateResidencyTicks::UNDEFINED 3000000000000                       # Cumulative time (in ticks) in various power states (Tick)
system.timingCpu7.power_state.numTransitions           24                       # Number of power state transitions (Count)
system.timingCpu7.power_state.ticksClkGated::samples           12                       # Distribution of time spent in the clock gated state (Tick)
system.timingCpu7.power_state.ticksClkGated::mean 700781316.666667                       # Distribution of time spent in the clock gated state (Tick)
system.timingCpu7.power_state.ticksClkGated::stdev 397311567.720525                       # Distribution of time spent in the clock gated state (Tick)
system.timingCpu7.power_state.ticksClkGated::1000-5e+10           12    100.00%    100.00% # Distribution of time spent in the clock gated state (Tick)
system.timingCpu7.power_state.ticksClkGated::min_value       457800                       # Distribution of time spent in the clock gated state (Tick)
system.timingCpu7.power_state.ticksClkGated::max_value    998533400                       # Distribution of time spent in the clock gated state (Tick)
system.timingCpu7.power_state.ticksClkGated::total           12                       # Distribution of time spent in the clock gated state (Tick)
system.timingCpu7.power_state.pwrStateResidencyTicks::ON 2991590624200                       # Cumulative time (in ticks) in various power states (Tick)
system.timingCpu7.power_state.pwrStateResidencyTicks::CLK_GATED   8409375800                       # Cumulative time (in ticks) in various power states (Tick)
system.timingCpu7.thread_0.numInsts                 0                       # Number of Instructions committed (Count)
system.timingCpu7.thread_0.numOps                   0                       # Number of Ops committed (Count)
system.timingCpu7.thread_0.numMemRefs               0                       # Number of Memory References (Count)
system.workload.inst.arm                            0                       # number of arm instructions executed (Count)
system.workload.inst.quiesce                        0                       # number of quiesce instructions executed (Count)

---------- End Simulation Statistics   ----------
