Global frequency set at 1000000000000 ticks per second
gem5 Simulator System.  https://www.gem5.org
gem5 is copyrighted software; use the --copyright option for details.

gem5 version 23.0.0.1
gem5 compiled Aug 17 2023 23:51:48
gem5 started Aug 18 2023 17:17:46
gem5 executing on azacca, pid 70664
command line: /scr/bees/pb-test-board/build/RISCV/gem5.opt --outdir=matched_board_tests/riscv-bubblesort/0_6_16/4 simple-config.py --benchmark=riscv-bubblesort --foldover=0 --pb_row=6 --matrix_size=16

{'core': {'threadPolicy': 'RoundRobin', 'BP': {'BPChoice': 'Tournament'}, 'FUPool': {'U74IntFU': 1, 'U74IntMulFU': 3, 'U74IntDivFU': 6, 'U74MemReadFU': 2, 'U74MemWriteFU': 6}}, 'cache': {'l2_size': '16MiB', 'l2_assoc': 64, 'l1dcache-response_latency': 4, 'l2cache-data_latency': 5, 'iptw_caches-size': '4KiB', 'dptw_caches-size': '4KiB'}}
-50000
